data/pglib_opf_case2746wp_k_storage.m
%%%%%%%%%%%%%%%%%%%%%%%%%%%%%%%%%%%%%%%%%%%%%%%%%%%%%%%%%%%%%%%%%%%%%%%%%%%
%%%%                                                                  %%%%%
%%%%    IEEE PES Power Grid Library - Optimal Power Flow - v23.07     %%%%%
%%%%          (https://github.com/power-grid-lib/pglib-opf)           %%%%%
%%%%               Benchmark Group - Typical Operations               %%%%%
%%%%                         23 - July - 2023                         %%%%%
%%%%                                                                  %%%%%
%%%%%%%%%%%%%%%%%%%%%%%%%%%%%%%%%%%%%%%%%%%%%%%%%%%%%%%%%%%%%%%%%%%%%%%%%%%
%
%   Power flow data for Polish system - winter 2003-04 evening peak.
%   Please see CASEFORMAT for details on the case file format.
%
%   This case represents the Polish 400, 220 and 110 kV networks during
%   winter 2003-04 evening peak conditions. Multiple centrally
%   dispatchable generators at a bus have not been aggregated.
%   Generators that are not centrally dispatchable in the Polish
%   energy market are given a cost of zero.
%
%   Copyright (c) 2010 by Roman Korab <roman.korab@polsl.pl>
%   Licensed under the Creative Commons Attribution 4.0
%   International license, http://creativecommons.org/licenses/by/4.0/
%
% Modified to have additional storage capacity and increased gencost
function mpc = pglib_opf_case2746wp_k
mpc.version = '2';
mpc.baseMVA = 100.0;

%% bus data
%	bus_i	type	Pd	Qd	Gs	Bs	area	Vm	Va	baseKV	zone	Vmax	Vmin
mpc.bus = [
	1	 1	 0.0	 0.0	 0.0	 0.0	 1	    1.03000	    0.00000	 220.0	 1	    1.11000	    0.95000;
	2	 1	 0.0	 0.0	 0.0	 0.0	 1	    1.03000	    0.00000	 220.0	 1	    1.11000	    0.95000;
	3	 1	 0.0	 0.0	 0.0	 0.0	 1	    1.03000	    0.00000	 220.0	 1	    1.11000	    0.95000;
	4	 1	 0.0	 0.0	 0.0	 0.0	 1	    1.03000	    0.00000	 220.0	 1	    1.11000	    0.95000;
	5	 1	 0.0	 0.0	 0.0	 0.0	 1	    1.03000	    0.00000	 220.0	 1	    1.11000	    0.95000;
	6	 1	 0.0	 0.0	 0.0	 0.0	 1	    1.03000	    0.00000	 220.0	 1	    1.11000	    0.95000;
	7	 1	 0.0	 0.0	 0.0	 0.0	 1	    1.03000	    0.00000	 220.0	 1	    1.11000	    0.95000;
	8	 1	 0.0	 0.0	 0.0	 0.0	 1	    1.00000	    0.00000	 400.0	 1	    1.05000	    0.95000;
	9	 1	 0.0	 0.0	 0.0	 0.0	 1	    1.00000	    0.00000	 400.0	 1	    1.05000	    0.95000;
	10	 1	 0.0	 0.0	 0.0	 0.0	 1	    1.03000	    0.00000	 220.0	 1	    1.11000	    0.95000;
	11	 1	 0.0	 0.0	 0.0	 0.0	 1	    1.03000	    0.00000	 220.0	 1	    1.11000	    0.95000;
	12	 1	 0.0	 0.0	 0.0	 0.0	 1	    1.03000	    0.00000	 220.0	 1	    1.11000	    0.95000;
	13	 1	 0.0	 0.0	 0.0	 0.0	 1	    1.00000	    0.00000	 400.0	 1	    1.05000	    0.95000;
	14	 1	 0.0	 0.0	 0.0	 0.0	 1	    1.00000	    0.00000	 400.0	 1	    1.05000	    0.95000;
	15	 1	 0.0	 0.0	 0.0	 0.0	 1	    1.00000	    0.00000	 400.0	 1	    1.05000	    0.95000;
	16	 1	 0.0	 0.0	 0.0	 0.0	 1	    1.00000	    0.00000	 400.0	 1	    1.05000	    0.95000;
	17	 2	 11.0	 40.0	 0.0	 0.0	 1	    1.03000	    0.00000	 220.0	 1	    1.11000	    0.95000;
	18	 2	 14.0	 40.0	 0.0	 0.0	 1	    1.03000	    0.00000	 220.0	 1	    1.11000	    0.95000;
	19	 1	 0.0	 0.0	 0.0	 0.0	 1	    1.03000	    0.00000	 220.0	 1	    1.11000	    0.95000;
	20	 1	 0.0	 0.0	 0.0	 0.0	 1	    1.03000	    0.00000	 220.0	 1	    1.11000	    0.95000;
	21	 1	 0.0	 0.0	 0.0	 0.0	 1	    1.03000	    0.00000	 220.0	 1	    1.11000	    0.95000;
	22	 1	 0.0	 0.0	 0.0	 0.0	 1	    1.03000	    0.00000	 220.0	 1	    1.11000	    0.95000;
	23	 1	 0.0	 0.0	 0.0	 0.0	 1	    1.03000	    0.00000	 220.0	 1	    1.11000	    0.95000;
	24	 1	 0.0	 0.0	 0.0	 0.0	 1	    1.03000	    0.00000	 220.0	 1	    1.11000	    0.95000;
	25	 1	 0.0	 0.0	 0.0	 0.0	 1	    1.00000	    0.00000	 400.0	 1	    1.05000	    0.95000;
	26	 2	 46.738	 72.054	 0.0	 0.0	 1	    1.03000	    0.00000	 220.0	 1	    1.11000	    0.95000;
	27	 2	 85.493	 122.06	 0.0	 0.0	 1	    1.03000	    0.00000	 220.0	 1	    1.11000	    0.95000;
	28	 3	 60.0	 110.0	 0.0	 0.0	 1	    1.00000	    0.00000	 400.0	 1	    1.05000	    0.95000;
	29	 2	 60.097	 90.0	 0.0	 0.0	 1	    1.00000	    0.00000	 400.0	 1	    1.05000	    0.95000;
	30	 1	 0.0	 0.0	 0.0	 0.0	 1	    1.03000	    0.00000	 220.0	 1	    1.11000	    0.95000;
	31	 1	 0.0	 0.0	 0.0	 0.0	 1	    1.00000	    0.00000	 400.0	 1	    1.05000	    0.95000;
	32	 1	 0.0	 0.0	 0.0	 0.0	 1	    1.03000	    0.00000	 220.0	 1	    1.11000	    0.95000;
	33	 1	 0.0	 0.0	 0.0	 0.0	 1	    1.03000	    0.00000	 220.0	 1	    1.11000	    0.95000;
	34	 1	 0.0	 0.0	 0.0	 0.0	 1	    1.03000	    0.00000	 220.0	 1	    1.11000	    0.95000;
	35	 1	 0.0	 0.0	 0.0	 0.0	 1	    1.03000	    0.00000	 220.0	 2	    1.11000	    0.95000;
	36	 1	 0.0	 0.0	 0.0	 0.0	 1	    1.03000	    0.00000	 220.0	 2	    1.11000	    0.95000;
	37	 1	 0.0	 0.0	 0.0	 0.0	 1	    1.03000	    0.00000	 220.0	 2	    1.11000	    0.95000;
	38	 1	 0.0	 0.0	 0.0	 0.0	 1	    1.03000	    0.00000	 220.0	 2	    1.11000	    0.95000;
	39	 1	 0.0	 0.0	 0.0	 0.0	 1	    1.03000	    0.00000	 220.0	 2	    1.11000	    0.95000;
	40	 1	 0.0	 0.0	 0.0	 0.0	 1	    1.03000	    0.00000	 220.0	 2	    1.11000	    0.95000;
	41	 1	 0.0	 0.0	 0.0	 0.0	 1	    1.03000	    0.00000	 220.0	 2	    1.11000	    0.95000;
	42	 1	 0.0	 0.0	 0.0	 0.0	 1	    1.00000	    0.00000	 400.0	 2	    1.05000	    0.95000;
	43	 2	 11.436	 0.0	 0.0	 0.0	 1	    1.03000	    0.00000	 220.0	 2	    1.11000	    0.95000;
	44	 2	 24.0	 0.0	 0.0	 0.0	 1	    1.03000	    0.00000	 220.0	 2	    1.11000	    0.95000;
	45	 2	 20.0	 0.0	 0.0	 0.0	 1	    1.00000	    0.00000	 400.0	 2	    1.05000	    0.95000;
	46	 1	 0.0	 0.0	 0.0	 0.0	 1	    1.00000	    0.00000	 400.0	 2	    1.05000	    0.95000;
	47	 1	 0.0	 0.0	 0.0	 0.0	 1	    1.03000	    0.00000	 220.0	 2	    1.11000	    0.95000;
	48	 1	 0.0	 0.0	 0.0	 0.0	 1	    1.00000	    0.00000	 400.0	 2	    1.05000	    0.95000;
	49	 1	 0.0	 0.0	 0.0	 0.0	 1	    1.00000	    0.00000	 400.0	 2	    1.05000	    0.95000;
	50	 1	 0.0	 0.0	 0.0	 0.0	 1	    1.00000	    0.00000	 400.0	 2	    1.05000	    0.95000;
	51	 1	 0.0	 0.0	 0.0	 0.0	 1	    1.03000	    0.00000	 220.0	 2	    1.11000	    0.95000;
	52	 1	 0.0	 0.0	 0.0	 0.0	 1	    1.03000	    0.00000	 220.0	 2	    1.11000	    0.95000;
	53	 1	 0.0	 0.0	 0.0	 0.0	 1	    1.00000	    0.00000	 400.0	 2	    1.05000	    0.95000;
	54	 1	 0.0	 0.0	 0.0	 0.0	 1	    1.00000	    0.00000	 400.0	 2	    1.05000	    0.95000;
	55	 2	 12.0	 0.0	 0.0	 0.0	 1	    1.03000	    0.00000	 220.0	 2	    1.11000	    0.95000;
	56	 2	 11.436	 0.0	 0.0	 0.0	 1	    1.03000	    0.00000	 220.0	 2	    1.11000	    0.95000;
	57	 2	 12.0	 0.0	 0.0	 0.0	 1	    1.00000	    0.00000	 400.0	 2	    1.05000	    0.95000;
	58	 2	 11.436	 0.0	 0.0	 0.0	 1	    1.00000	    0.00000	 400.0	 2	    1.05000	    0.95000;
	59	 2	 167.518	 60.0	 0.0	 0.0	 1	    1.03000	    0.00000	 220.0	 2	    1.11000	    0.95000;
	60	 1	 0.0	 0.0	 0.0	 0.0	 1	    1.03000	    0.00000	 220.0	 2	    1.11000	    0.95000;
	61	 1	 0.0	 0.0	 0.0	 0.0	 1	    1.03000	    0.00000	 220.0	 2	    1.11000	    0.95000;
	62	 1	 0.0	 0.0	 0.0	 0.0	 1	    1.03000	    0.00000	 220.0	 2	    1.11000	    0.95000;
	63	 1	 0.0	 0.0	 0.0	 0.0	 1	    1.03000	    0.00000	 220.0	 2	    1.11000	    0.95000;
	64	 1	 0.0	 0.0	 0.0	 0.0	 1	    1.00000	    0.00000	 400.0	 2	    1.05000	    0.95000;
	65	 1	 0.0	 0.0	 0.0	 0.0	 1	    1.00000	    0.00000	 400.0	 2	    1.05000	    0.95000;
	66	 1	 0.0	 0.0	 0.0	 0.0	 1	    1.03000	    0.00000	 220.0	 2	    1.11000	    0.95000;
	67	 1	 0.0	 0.0	 0.0	 0.0	 1	    1.03000	    0.00000	 220.0	 2	    1.11000	    0.95000;
	68	 1	 0.0	 0.0	 0.0	 0.0	 1	    1.03000	    0.00000	 220.0	 2	    1.11000	    0.95000;
	69	 1	 0.0	 0.0	 0.0	 0.0	 1	    1.03000	    0.00000	 220.0	 3	    1.11000	    0.95000;
	70	 1	 7.123	 0.0	 0.0	 0.0	 1	    1.03000	    0.00000	 220.0	 3	    1.11000	    0.95000;
	71	 1	 8.31	 0.933	 0.0	 0.0	 1	    1.03000	    0.00000	 220.0	 3	    1.11000	    0.95000;
	72	 1	 0.0	 0.0	 0.0	 0.0	 1	    1.03000	    0.00000	 220.0	 3	    1.11000	    0.95000;
	73	 1	 0.0	 0.0	 0.0	 0.0	 1	    1.03000	    0.00000	 220.0	 3	    1.11000	    0.95000;
	74	 1	 0.0	 0.0	 0.0	 0.0	 1	    1.03000	    0.00000	 220.0	 3	    1.11000	    0.95000;
	75	 1	 0.0	 0.0	 0.0	 0.0	 1	    1.03000	    0.00000	 220.0	 3	    1.11000	    0.95000;
	76	 1	 0.0	 0.0	 0.0	 0.0	 1	    1.03000	    0.00000	 220.0	 3	    1.11000	    0.95000;
	77	 1	 0.0	 0.0	 0.0	 0.0	 1	    1.03000	    0.00000	 220.0	 3	    1.11000	    0.95000;
	78	 2	 27.0	 70.0	 0.0	 0.0	 1	    1.03000	    0.00000	 220.0	 3	    1.11000	    0.95000;
	79	 2	 9.0	 21.0	 0.0	 0.0	 1	    1.03000	    0.00000	 220.0	 3	    1.11000	    0.95000;
	80	 1	 10.328	 2.61	 0.0	 0.0	 1	    1.03000	    0.00000	 220.0	 3	    1.11000	    0.95000;
	81	 1	 0.0	 0.0	 0.0	 0.0	 1	    1.03000	    0.00000	 220.0	 3	    1.11000	    0.95000;
	82	 2	 35.0	 108.0	 0.0	 0.0	 1	    1.00000	    0.00000	 400.0	 3	    1.05000	    0.95000;
	83	 1	 0.0	 0.0	 0.0	 0.0	 1	    1.03000	    0.00000	 220.0	 3	    1.11000	    0.95000;
	84	 1	 0.0	 0.0	 0.0	 0.0	 1	    1.03000	    0.00000	 220.0	 3	    1.11000	    0.95000;
	85	 1	 0.0	 0.0	 0.0	 0.0	 1	    1.03000	    0.00000	 220.0	 3	    1.11000	    0.95000;
	86	 1	 37.893	 12.351	 0.0	 0.0	 1	    1.03000	    0.00000	 220.0	 3	    1.11000	    0.95000;
	87	 1	 0.0	 0.0	 0.0	 0.0	 1	    1.03000	    0.00000	 220.0	 3	    1.11000	    0.95000;
	88	 1	 0.0	 0.0	 0.0	 0.0	 1	    1.03000	    0.00000	 220.0	 3	    1.11000	    0.95000;
	89	 1	 0.0	 0.0	 0.0	 0.0	 1	    1.03000	    0.00000	 220.0	 3	    1.11000	    0.95000;
	90	 1	 0.0	 0.0	 0.0	 0.0	 1	    1.03000	    0.00000	 220.0	 3	    1.11000	    0.95000;
	91	 1	 0.0	 0.0	 0.0	 0.0	 1	    1.03000	    0.00000	 220.0	 3	    1.11000	    0.95000;
	92	 1	 0.0	 0.0	 0.0	 0.0	 1	    1.00000	    0.00000	 400.0	 3	    1.05000	    0.95000;
	93	 1	 0.0	 0.0	 0.0	 0.0	 1	    1.00000	    0.00000	 400.0	 3	    1.05000	    0.95000;
	94	 1	 0.0	 0.0	 0.0	 0.0	 1	    1.03000	    0.00000	 220.0	 3	    1.11000	    0.95000;
	95	 1	 0.0	 0.0	 0.0	 0.0	 1	    1.03000	    0.00000	 220.0	 3	    1.11000	    0.95000;
	96	 1	 0.0	 0.0	 0.0	 0.0	 1	    1.03000	    0.00000	 220.0	 3	    1.11000	    0.95000;
	97	 1	 0.0	 0.0	 0.0	 0.0	 1	    1.03000	    0.00000	 220.0	 3	    1.11000	    0.95000;
	98	 1	 16.027	 7.274	 0.0	 0.0	 1	    1.03000	    0.00000	 220.0	 3	    1.11000	    0.95000;
	99	 1	 7.764	 0.258	 0.0	 0.0	 1	    1.03000	    0.00000	 220.0	 3	    1.11000	    0.95000;
	100	 1	 0.0	 0.0	 0.0	 0.0	 1	    1.03000	    0.00000	 220.0	 3	    1.11000	    0.95000;
	101	 1	 0.0	 0.0	 0.0	 0.0	 1	    1.03000	    0.00000	 220.0	 3	    1.11000	    0.95000;
	102	 1	 0.0	 0.0	 0.0	 0.0	 1	    1.03000	    0.00000	 220.0	 3	    1.11000	    0.95000;
	103	 1	 0.0	 0.0	 0.0	 0.0	 1	    1.03000	    0.00000	 220.0	 3	    1.11000	    0.95000;
	104	 2	 14.0	 40.0	 0.0	 0.0	 1	    1.03000	    0.00000	 220.0	 3	    1.11000	    0.95000;
	105	 2	 14.0	 40.0	 0.0	 0.0	 1	    1.03000	    0.00000	 220.0	 3	    1.11000	    0.95000;
	106	 2	 7.0	 18.0	 0.0	 0.0	 1	    1.03000	    0.00000	 220.0	 3	    1.11000	    0.95000;
	107	 2	 8.0	 15.0	 0.0	 0.0	 1	    1.03000	    0.00000	 220.0	 3	    1.11000	    0.95000;
	108	 1	 1.044	 0.0	 0.0	 0.0	 1	    1.03000	    0.00000	 220.0	 3	    1.11000	    0.95000;
	109	 1	 1.259	 0.0	 0.0	 0.0	 1	    1.03000	    0.00000	 220.0	 3	    1.11000	    0.95000;
	110	 1	 0.0	 0.0	 0.0	 0.0	 1	    1.03000	    0.00000	 220.0	 3	    1.11000	    0.95000;
	111	 1	 0.0	 0.0	 0.0	 0.0	 1	    1.03000	    0.00000	 220.0	 3	    1.11000	    0.95000;
	112	 1	 0.0	 0.0	 0.0	 0.0	 1	    1.03000	    0.00000	 220.0	 3	    1.11000	    0.95000;
	113	 1	 0.0	 0.0	 0.0	 0.0	 1	    1.03000	    0.00000	 220.0	 3	    1.11000	    0.95000;
	114	 1	 0.0	 0.0	 0.0	 0.0	 1	    1.03000	    0.00000	 220.0	 3	    1.11000	    0.95000;
	115	 1	 0.0	 0.0	 0.0	 0.0	 1	    1.00000	    0.00000	 400.0	 3	    1.05000	    0.95000;
	116	 2	 0.0	 0.0	 0.0	 0.0	 1	    1.03000	    0.00000	 220.0	 3	    1.11000	    0.95000;
	117	 2	 8.0	 15.0	 0.0	 0.0	 1	    1.03000	    0.00000	 220.0	 3	    1.11000	    0.95000;
	118	 2	 5.5	 10.0	 0.0	 0.0	 1	    1.03000	    0.00000	 220.0	 3	    1.11000	    0.95000;
	119	 1	 0.0	 0.0	 0.0	 0.0	 1	    1.03000	    0.00000	 220.0	 3	    1.11000	    0.95000;
	120	 1	 0.0	 0.0	 0.0	 0.0	 1	    1.00000	    0.00000	 400.0	 3	    1.05000	    0.95000;
	121	 1	 0.0	 0.0	 0.0	 0.0	 1	    1.00000	    0.00000	 400.0	 3	    1.05000	    0.95000;
	122	 1	 0.0	 0.0	 0.0	 0.0	 1	    1.00000	    0.00000	 400.0	 3	    1.05000	    0.95000;
	123	 1	 0.0	 0.0	 0.0	 0.0	 1	    1.00000	    0.00000	 400.0	 3	    1.05000	    0.95000;
	124	 1	 0.0	 0.0	 0.0	 0.0	 1	    1.03000	    0.00000	 220.0	 3	    1.11000	    0.95000;
	125	 2	 18.343	 21.865	 0.0	 0.0	 1	    1.03000	    0.00000	 220.0	 3	    1.11000	    0.95000;
	126	 2	 28.469	 34.292	 0.0	 0.0	 1	    1.03000	    0.00000	 220.0	 3	    1.11000	    0.95000;
	127	 2	 28.0	 66.0	 0.0	 0.0	 1	    1.00000	    0.00000	 400.0	 3	    1.05000	    0.95000;
	128	 1	 0.0	 0.0	 0.0	 0.0	 1	    1.00000	    0.00000	 400.0	 3	    1.05000	    0.95000;
	129	 1	 0.0	 0.0	 0.0	 0.0	 1	    1.03000	    0.00000	 220.0	 3	    1.11000	    0.95000;
	130	 1	 0.0	 0.0	 0.0	 0.0	 1	    1.03000	    0.00000	 220.0	 3	    1.11000	    0.95000;
	131	 1	 0.0	 0.0	 0.0	 0.0	 1	    1.03000	    0.00000	 220.0	 3	    1.11000	    0.95000;
	132	 2	 3.0	 18.0	 0.0	 0.0	 1	    1.03000	    0.00000	 220.0	 3	    1.11000	    0.95000;
	133	 2	 2.0	 6.0	 0.0	 0.0	 1	    1.03000	    0.00000	 220.0	 3	    1.11000	    0.95000;
	134	 2	 15.447	 12.88	 0.0	 0.0	 1	    1.03000	    0.00000	 220.0	 4	    1.11000	    0.95000;
	135	 2	 5.255	 -0.357	 0.0	 0.0	 1	    1.03000	    0.00000	 220.0	 4	    1.11000	    0.95000;
	136	 1	 0.0	 0.0	 0.0	 0.0	 1	    1.03000	    0.00000	 220.0	 4	    1.11000	    0.95000;
	137	 1	 0.0	 0.0	 0.0	 0.0	 1	    1.03000	    0.00000	 220.0	 4	    1.11000	    0.95000;
	138	 1	 0.0	 0.0	 0.0	 0.0	 1	    1.00000	    0.00000	 400.0	 4	    1.05000	    0.95000;
	139	 1	 0.0	 0.0	 0.0	 0.0	 1	    1.00000	    0.00000	 400.0	 4	    1.05000	    0.95000;
	140	 1	 0.0	 0.0	 0.0	 0.0	 1	    1.03000	    0.00000	 220.0	 4	    1.11000	    0.95000;
	141	 1	 0.0	 0.0	 0.0	 0.0	 1	    1.03000	    0.00000	 220.0	 4	    1.11000	    0.95000;
	142	 1	 0.0	 0.0	 0.0	 0.0	 1	    1.03000	    0.00000	 220.0	 4	    1.11000	    0.95000;
	143	 1	 0.0	 0.0	 0.0	 0.0	 1	    1.03000	    0.00000	 220.0	 4	    1.11000	    0.95000;
	144	 1	 0.0	 0.0	 0.0	 0.0	 1	    1.03000	    0.00000	 220.0	 4	    1.11000	    0.95000;
	145	 1	 0.0	 0.0	 0.0	 0.0	 1	    1.03000	    0.00000	 220.0	 4	    1.11000	    0.95000;
	146	 2	 10.954	 -0.465	 0.0	 0.0	 1	    1.03000	    0.00000	 220.0	 4	    1.11000	    0.95000;
	147	 2	 10.812	 -0.465	 0.0	 0.0	 1	    1.03000	    0.00000	 220.0	 4	    1.11000	    0.95000;
	148	 2	 11.5	 6.86	 0.0	 0.0	 1	    1.03000	    0.00000	 220.0	 4	    1.11000	    0.95000;
	149	 1	 1.634	 3.038	 0.0	 0.0	 1	    1.03000	    0.00000	 220.0	 4	    1.11000	    0.95000;
	150	 2	 8.087	 -0.38	 0.0	 0.0	 1	    1.00000	    0.00000	 400.0	 4	    1.05000	    0.95000;
	151	 2	 16.174	 -0.76	 0.0	 0.0	 1	    1.00000	    0.00000	 400.0	 4	    1.05000	    0.95000;
	152	 1	 0.0	 0.0	 0.0	 0.0	 1	    1.03000	    0.00000	 220.0	 4	    1.11000	    0.95000;
	153	 1	 0.0	 0.0	 0.0	 0.0	 1	    1.03000	    0.00000	 220.0	 4	    1.11000	    0.95000;
	154	 1	 0.0	 0.0	 0.0	 0.0	 1	    1.03000	    0.00000	 220.0	 4	    1.11000	    0.95000;
	155	 2	 30.555	 -3.555	 0.0	 0.0	 1	    1.03000	    0.00000	 220.0	 4	    1.11000	    0.95000;
	156	 2	 14.679	 -3.566	 0.0	 0.0	 1	    1.03000	    0.00000	 220.0	 4	    1.11000	    0.95000;
	157	 1	 0.0	 0.0	 0.0	 0.0	 1	    1.03000	    0.00000	 220.0	 4	    1.11000	    0.95000;
	158	 1	 0.0	 0.0	 0.0	 0.0	 1	    1.00000	    0.00000	 400.0	 4	    1.05000	    0.95000;
	159	 2	 7.385	 -1.783	 0.0	 0.0	 1	    1.00000	    0.00000	 400.0	 4	    1.05000	    0.95000;
	160	 1	 0.0	 0.0	 0.0	 0.0	 1	    1.03000	    0.00000	 220.0	 4	    1.11000	    0.95000;
	161	 1	 0.0	 0.0	 0.0	 0.0	 1	    1.03000	    0.00000	 220.0	 4	    1.11000	    0.95000;
	162	 1	 0.0	 0.0	 0.0	 0.0	 1	    1.00000	    0.00000	 400.0	 4	    1.05000	    0.95000;
	163	 1	 0.0	 0.0	 0.0	 0.0	 1	    1.00000	    0.00000	 400.0	 4	    1.05000	    0.95000;
	164	 1	 0.0	 0.0	 0.0	 0.0	 1	    1.00000	    0.00000	 400.0	 4	    1.05000	    0.95000;
	165	 2	 4.293	 -8.964	 0.0	 0.0	 1	    1.03000	    0.00000	 220.0	 4	    1.11000	    0.95000;
	166	 2	 23.077	 7.176	 0.0	 0.0	 1	    1.03000	    0.00000	 220.0	 4	    1.11000	    0.95000;
	167	 1	 0.0	 0.0	 0.0	 0.0	 1	    1.03000	    0.00000	 220.0	 4	    1.11000	    0.95000;
	168	 1	 0.0	 0.0	 0.0	 0.0	 1	    1.03000	    0.00000	 220.0	 4	    1.11000	    0.95000;
	169	 1	 0.0	 0.0	 0.0	 0.0	 1	    1.03000	    0.00000	 220.0	 4	    1.11000	    0.95000;
	170	 1	 0.0	 0.0	 0.0	 0.0	 1	    1.03000	    0.00000	 220.0	 4	    1.11000	    0.95000;
	171	 1	 0.0	 0.0	 0.0	 0.0	 1	    1.03000	    0.00000	 220.0	 4	    1.11000	    0.95000;
	172	 1	 0.0	 0.0	 0.0	 0.0	 1	    1.00000	    0.00000	 400.0	 4	    1.05000	    0.95000;
	173	 1	 0.0	 0.0	 0.0	 0.0	 1	    1.00000	    0.00000	 400.0	 4	    1.05000	    0.95000;
	174	 1	 0.0	 0.0	 0.0	 0.0	 1	    1.03000	    0.00000	 220.0	 4	    1.11000	    0.95000;
	175	 1	 0.0	 0.0	 0.0	 0.0	 1	    1.03000	    0.00000	 220.0	 4	    1.11000	    0.95000;
	176	 1	 0.0	 0.0	 0.0	 0.0	 1	    1.03000	    0.00000	 220.0	 4	    1.11000	    0.95000;
	177	 1	 0.0	 0.0	 0.0	 0.0	 1	    1.03000	    0.00000	 220.0	 4	    1.11000	    0.95000;
	178	 1	 0.0	 0.0	 0.0	 0.0	 1	    1.03000	    0.00000	 220.0	 4	    1.11000	    0.95000;
	179	 1	 0.0	 0.0	 0.0	 0.0	 1	    1.03000	    0.00000	 220.0	 4	    1.11000	    0.95000;
	180	 1	 0.0	 0.0	 0.0	 0.0	 1	    1.03000	    0.00000	 220.0	 4	    1.11000	    0.95000;
	181	 1	 0.0	 0.0	 0.0	 0.0	 1	    1.03000	    0.00000	 220.0	 4	    1.11000	    0.95000;
	182	 1	 0.0	 0.0	 0.0	 0.0	 1	    1.03000	    0.00000	 220.0	 5	    1.11000	    0.95000;
	183	 1	 0.0	 0.0	 0.0	 0.0	 1	    1.03000	    0.00000	 220.0	 5	    1.11000	    0.95000;
	184	 1	 0.0	 0.0	 0.0	 0.0	 1	    1.00000	    0.00000	 400.0	 5	    1.05000	    0.95000;
	185	 1	 0.0	 0.0	 0.0	 0.0	 1	    1.00000	    0.00000	 400.0	 5	    1.05000	    0.95000;
	186	 1	 0.0	 0.0	 0.0	 0.0	 1	    1.00000	    0.00000	 400.0	 5	    1.05000	    0.95000;
	187	 1	 0.0	 0.0	 0.0	 0.0	 1	    1.00000	    0.00000	 400.0	 5	    1.05000	    0.95000;
	188	 1	 0.0	 0.0	 0.0	 0.0	 1	    1.03000	    0.00000	 220.0	 5	    1.11000	    0.95000;
	189	 1	 0.0	 0.0	 0.0	 0.0	 1	    1.03000	    0.00000	 220.0	 5	    1.11000	    0.95000;
	190	 1	 0.0	 0.0	 0.0	 0.0	 1	    1.03000	    0.00000	 220.0	 5	    1.11000	    0.95000;
	191	 1	 0.0	 0.0	 0.0	 0.0	 1	    1.03000	    0.00000	 220.0	 5	    1.11000	    0.95000;
	192	 1	 0.0	 0.0	 0.0	 0.0	 1	    1.00000	    0.00000	 400.0	 5	    1.05000	    0.95000;
	193	 1	 0.0	 0.0	 0.0	 0.0	 1	    1.03000	    0.00000	 220.0	 5	    1.11000	    0.95000;
	194	 1	 0.0	 0.0	 0.0	 0.0	 1	    1.03000	    0.00000	 220.0	 5	    1.11000	    0.95000;
	195	 1	 0.0	 0.0	 0.0	 0.0	 1	    1.00000	    0.00000	 400.0	 5	    1.05000	    0.95000;
	196	 1	 0.0	 0.0	 0.0	 0.0	 1	    1.00000	    0.00000	 400.0	 5	    1.05000	    0.95000;
	197	 1	 0.0	 0.0	 0.0	 0.0	 1	    1.03000	    0.00000	 220.0	 5	    1.11000	    0.95000;
	198	 1	 0.0	 0.0	 0.0	 0.0	 1	    1.03000	    0.00000	 220.0	 5	    1.11000	    0.95000;
	199	 1	 0.0	 0.0	 0.0	 0.0	 1	    1.00000	    0.00000	 400.0	 5	    1.05000	    0.95000;
	200	 1	 0.0	 0.0	 0.0	 0.0	 1	    1.00000	    0.00000	 400.0	 5	    1.05000	    0.95000;
...
];

%% generator data
%	bus	Pg	Qg	Qmax	Qmin	Vg	mBase	status	Pmax	Pmin
mpc.gen = [
	17	 170.0	 55.0	 120.0	 -10.0	 1.03	 233.2	 1	 200.0	 140.0;
	18	 170.0	 55.0	 120.0	 -10.0	 1.03	 233.2	 1	 200.0	 140.0;
	26	 330.0	 105.0	 220.0	 -10.0	 1.03	 430.5	 1	 370.0	 290.0;
	26	 325.0	 105.0	 220.0	 -10.0	 1.03	 421.9	 1	 360.0	 290.0;
	27	 325.0	 105.0	 220.0	 -10.0	 1.03	 421.9	 1	 360.0	 290.0;
	27	 330.0	 105.0	 220.0	 -10.0	 1.03	 430.5	 1	 370.0	 290.0;
	27	 330.0	 105.0	 220.0	 -10.0	 1.03	 430.5	 1	 370.0	 290.0;
	28	 330.0	 105.0	 220.0	 -10.0	 1.0	 430.5	 1	 370.0	 290.0;
	28	 330.0	 105.0	 220.0	 -10.0	 1.0	 430.5	 1	 370.0	 290.0;
	28	 330.0	 105.0	 220.0	 -10.0	 1.0	 430.5	 1	 370.0	 290.0;
	29	 330.0	 105.0	 220.0	 -10.0	 1.0	 430.5	 1	 370.0	 290.0;
	29	 330.0	 105.0	 220.0	 -10.0	 1.0	 430.5	 1	 370.0	 290.0;
	29	 330.0	 105.0	 220.0	 -10.0	 1.0	 430.5	 1	 370.0	 290.0;
	43	 175.0	 50.0	 120.0	 -20.0	 1.03	 246.2	 1	 215.0	 135.0;
	43	 0.0	 0.0	 120.0	 -20.0	 1.03	 275.3	 0	 247.8	 135.0;
	43	 191.4	 50.0	 120.0	 -20.0	 1.03	 275.3	 1	 247.8	 135.0;
	44	 180.0	 50.0	 120.0	 -20.0	 1.03	 255.0	 1	 225.0	 135.0;
	44	 180.0	 50.0	 120.0	 -20.0	 1.03	 255.0	 1	 225.0	 135.0;
	44	 0.0	 0.0	 120.0	 -20.0	 1.03	 255.0	 0	 225.0	 135.0;
	45	 0.0	 0.0	 350.0	 -40.0	 1.0	 610.3	 0	 500.0	 350.0;
	45	 425.0	 155.0	 350.0	 -40.0	 1.0	 610.3	 1	 500.0	 350.0;
	55	 177.5	 50.0	 120.0	 -20.0	 1.03	 255.0	 1	 225.0	 130.0;
	56	 177.5	 49.9995	 120.0	 -20.001	 1.03	 255.0	 1	 225.0	 130.0;
	56	 177.5	 49.9995	 120.0	 -20.001	 1.03	 255.0	 1	 225.0	 130.0;
	57	 177.5	 50.0	 120.0	 -20.0	 1.0	 255.0	 1	 225.0	 130.0;
	58	 0.0	 0.0	 120.0	 -20.0	 1.0	 255.0	 0	 225.0	 130.0;
	58	 177.5	 49.997	 120.0	 -20.006	 1.0	 255.0	 1	 225.0	 130.0;
	58	 177.5	 49.997	 120.0	 -20.006	 1.0	 255.0	 1	 225.0	 130.0;
	59	 78.5	 16.82	 33.64	 0.0	 1.03	 85.4	 1	 78.5	 78.5;
	78	 182.5	 55.0	 105.0	 5.0	 1.03	 248.3	 1	 225.0	 140.0;
	78	 182.5	 55.0	 105.0	 5.0	 1.03	 248.3	 1	 225.0	 140.0;
	79	 0.0	 0.0	 105.0	 5.0	 1.03	 243.8	 0	 220.0	 140.0;
	79	 0.0	 0.0	 105.0	 5.0	 1.03	 248.3	 0	 225.0	 140.0;
	79	 182.5	 55.0	 105.0	 5.0	 1.03	 248.3	 1	 225.0	 140.0;
	82	 300.0	 77.5	 192.0	 -37.0	 1.0	 425.8	 1	 380.0	 220.0;
	82	 295.0	 77.5	 174.0	 -19.0	 1.0	 408.9	 1	 370.0	 220.0;
	104	 179.5	 32.5	 113.0	 -48.0	 1.03	 251.8	 1	 225.0	 134.0;
	105	 179.5	 32.5	 113.0	 -48.0	 1.03	 251.8	 1	 225.0	 134.0;
	106	 99.5	 42.5	 90.0	 -5.0	 1.03	 150.0	 1	 120.0	 79.0;
	107	 99.5	 42.5	 90.0	 -5.0	 1.03	 150.0	 1	 120.0	 79.0;
	116	 0.0	 0.0	 90.0	 -20.0	 1.03	 150.0	 0	 120.0	 90.0;
	117	 95.0	 35.0	 90.0	 -20.0	 1.03	 150.0	 1	 120.0	 70.0;
	118	 95.0	 50.5	 68.0	 33.0	 1.03	 129.3	 1	 110.0	 80.0;
	125	 187.5	 51.0	 113.0	 -11.0	 1.03	 242.9	 1	 215.0	 160.0;
	126	 182.5	 39.5	 84.0	 -5.0	 1.03	 240.2	 1	 225.0	 140.0;
	126	 0.0	 0.0	 80.0	 -5.0	 1.03	 229.4	 0	 215.0	 160.0;
	127	 182.5	 35.751	 79.0	 -7.498	 1.0	 238.5	 1	 225.0	 140.0;
	127	 190.0	 45.0	 100.0	 -10.0	 1.0	 241.7	 1	 220.0	 160.0;
	132	 99.5	 1.0	 40.0	 -38.0	 1.03	 131.2	 1	 125.0	 74.0;
	132	 99.5	 1.0	 40.0	 -38.0	 1.03	 131.2	 1	 125.0	 74.0;
	133	 0.0	 0.0	 40.0	 -38.0	 1.03	 131.2	 0	 125.0	 74.0;
	133	 99.5	 1.0	 40.0	 -38.0	 1.03	 131.2	 1	 125.0	 74.0;
	134	 0.0	 0.0	 90.0	 0.0	 1.03	 150.0	 0	 120.0	 102.0;
	134	 110.0	 45.0	 90.0	 0.0	 1.03	 150.0	 1	 120.0	 100.0;
	135	 0.0	 0.0	 90.0	 0.0	 1.03	 150.0	 0	 120.0	 102.0;
	146	 40.0	 6.0	 12.0	 0.0	 1.03	 51.4	 1	 50.0	 30.0;
	146	 40.0	 6.0	 12.0	 0.0	 1.03	 51.4	 1	 50.0	 30.0;
	147	 0.0	 0.0	 90.0	 0.0	 1.03	 150.0	 0	 120.0	 90.0;
	148	 156.0	 60.0	 120.0	 0.0	 1.03	 252.4	 1	 222.0	 90.0;
	148	 0.0	 0.0	 120.0	 0.0	 1.03	 237.5	 0	 205.0	 135.0;
	148	 0.0	 0.0	 120.0	 0.0	 1.03	 237.5	 0	 205.0	 135.0;
	148	 156.0	 60.0	 120.0	 0.0	 1.03	 252.4	 1	 222.0	 90.0;
	150	 156.0	 60.0	 120.0	 0.0	 1.0	 252.4	 1	 222.0	 90.0;
	151	 156.0	 60.0	 120.0	 0.0	 1.0	 252.4	 1	 222.0	 90.0;
	151	 156.0	 60.0	 120.0	 0.0	 1.0	 252.4	 1	 222.0	 90.0;
	155	 164.5	 60.0	 120.0	 0.0	 1.03	 263.9	 1	 235.0	 94.0;
	155	 164.5	 60.0	 120.0	 0.0	 1.03	 263.9	 1	 235.0	 94.0;
	155	 0.0	 0.0	 120.0	 0.0	 1.03	 237.5	 0	 205.0	 130.0;
	155	 182.5	 60.0	 120.0	 0.0	 1.03	 287.3	 1	 261.0	 104.0;
	156	 0.0	 0.0	 120.0	 0.0	 1.03	 237.5	 0	 205.0	 130.0;
	156	 167.5	 60.0	 120.0	 0.0	 1.03	 237.5	 1	 205.0	 130.0;
	156	 163.0	 60.0	 120.0	 0.0	 1.03	 238.4	 1	 206.0	 120.0;
	156	 163.0	 60.0	 120.0	 0.0	 1.03	 238.4	 1	 206.0	 120.0;
	159	 163.0	 60.0	 120.0	 0.0	 1.0	 238.4	 1	 206.0	 120.0;
	165	 175.0	 59.9955	 120.0	 -0.009	 1.03	 233.2	 1	 200.0	 150.0;
	165	 175.0	 59.9955	 120.0	 -0.009	 1.03	 233.2	 1	 200.0	 150.0;
	166	 175.0	 60.0	 120.0	 0.0	 1.03	 233.2	 1	 200.0	 150.0;
	166	 175.0	 60.0	 120.0	 0.0	 1.03	 233.2	 1	 200.0	 150.0;
	205	 159.5	 25.0	 110.0	 -60.0	 1.0	 210.1	 1	 179.0	 140.0;
	205	 159.5	 25.0	 110.0	 -60.0	 1.0	 210.1	 1	 179.0	 140.0;
	205	 0.0	 0.0	 110.0	 -60.0	 1.0	 210.1	 0	 179.0	 140.0;
	206	 159.5	 25.0	 110.0	 -60.0	 1.0	 210.1	 1	 179.0	 140.0;
	215	 37.079	 10.0	 20.0	 0.0	 1.035	 58.5	 1	 37.079	 37.079;
	215	 33.708	 10.0	 20.0	 0.0	 1.035	 53.9	 1	 33.708	 33.708;
	215	 33.708	 10.0	 20.0	 0.0	 1.035	 53.9	 1	 33.708	 33.708;
	215	 15.506	 10.0	 20.0	 0.0	 1.035	 30.5	 1	 15.506	 15.506;
	239	 4.0	 4.0	 8.0	 0.0	 1.035	 15.4	 1	 4.0	 4.0;
	246	 330.0	 103.0	 220.0	 -14.0	 1.035	 430.5	 1	 370.0	 290.0;
	291	 2.0	 1.0	 2.0	 0.0	 1.035	 3.2	 1	 2.0	 2.0;
	294	 3.0	 1.0	 2.0	 0.0	 1.035	 4.8	 1	 3.0	 3.0;
	306	 9.167	 3.5	 7.0	 0.0	 1.035	 24.0	 1	 9.167	 9.167;
	306	 16.296	 3.5	 7.0	 0.0	 1.035	 27.9	 1	 16.296	 16.296;
	306	 11.204	 6.808	 7.616	 6.0	 1.035	 31.0	 1	 11.204	 11.204;
	306	 9.167	 3.5	 7.0	 0.0	 1.035	 26.9	 1	 9.167	 9.167;
	306	 9.167	 3.964	 7.928	 0.0	 1.035	 28.1	 1	 9.167	 9.167;
	307	 36.5	 7.5	 15.0	 0.0	 1.035	 57.0	 1	 36.5	 36.5;
	307	 36.5	 7.5	 15.0	 0.0	 1.035	 57.0	 1	 36.5	 36.5;
	308	 32.0	 7.5	 15.0	 0.0	 1.035	 36.7	 1	 32.0	 32.0;
	308	 40.0	 8.798	 17.596	 0.0	 1.035	 57.7	 1	 40.0	 40.0;
	310	 35.0	 10.0	 20.0	 0.0	 1.035	 53.9	 1	 35.0	 35.0;
	310	 75.0	 13.6235	 27.247	 0.0	 1.035	 103.6	 1	 75.0	 75.0;
	311	 45.0	 20.0	 40.0	 0.0	 1.035	 64.0	 1	 45.0	 45.0;
	362	 37.8	 6.0	 12.0	 0.0	 1.035	 47.8	 1	 37.8	 37.8;
	363	 37.8	 6.0	 12.0	 0.0	 1.035	 47.8	 1	 37.8	 37.8;
	364	 37.8	 6.0	 12.0	 0.0	 1.035	 47.8	 1	 37.8	 37.8;
	364	 45.0	 6.0	 12.0	 0.0	 1.035	 71.0	 1	 45.0	 45.0;
	365	 37.8	 6.0	 12.0	 0.0	 1.035	 47.8	 1	 37.8	 37.8;
	365	 37.8	 6.0	 12.0	 0.0	 1.035	 47.8	 1	 37.8	 37.8;
	382	 35.0	 5.0	 10.0	 0.0	 1.035	 55.9	 1	 55.0	 15.0;
	382	 173.0	 55.0	 120.0	 -10.0	 1.035	 255.9	 1	 226.0	 120.0;
	383	 35.0	 5.0	 10.0	 0.0	 1.035	 55.9	 1	 55.0	 15.0;
	386	 3.0	 1.0	 2.0	 0.0	 1.035	 4.8	 1	 3.0	 3.0;
	421	 4.0	 2.0	 4.0	 0.0	 1.035	 7.7	 1	 4.0	 4.0;
	431	 7.0	 4.0	 8.0	 0.0	 1.035	 13.6	 1	 7.0	 7.0;
	440	 2.5	 1.0	 2.0	 0.0	 1.035	 3.6	 1	 2.5	 2.5;
	447	 3.5	 10.0	 20.0	 0.0	 1.035	 21.3	 1	 3.5	 3.5;
	447	 3.5	 10.0	 20.0	 0.0	 1.035	 21.3	 1	 3.5	 3.5;
	463	 0.0	 1.0	 2.0	 0.0	 1.035	 4.0	 1	 0.0	 0.0;
	482	 1.4	 0.35	 0.7	 0.0	 1.035	 1.7	 1	 1.4	 1.4;
	490	 3.5	 1.5	 3.0	 0.0	 1.035	 5.3	 1	 3.5	 3.5;
	522	 0.0	 0.5	 1.0	 0.0	 1.035	 1.9	 1	 0.0	 0.0;
	533	 0.5	 0.5	 1.0	 0.0	 1.035	 1.9	 1	 0.5	 0.5;
	534	 35.89	 7.0	 14.0	 0.0	 1.035	 53.9	 1	 35.89	 35.89;
	534	 22.086	 7.0	 14.0	 0.0	 1.035	 34.9	 1	 22.086	 22.086;
	534	 22.086	 7.0	 14.0	 0.0	 1.035	 34.9	 1	 22.086	 22.086;
	534	 72.469	 12.0005	 24.001	 0.0	 1.035	 107.7	 1	 72.469	 72.469;
	534	 72.469	 12.0005	 24.001	 0.0	 1.035	 107.7	 1	 72.469	 72.469;
	535	 24.573	 8.75	 17.5	 0.0	 1.035	 36.5	 1	 24.573	 24.573;
	535	 23.805	 8.75	 17.5	 0.0	 1.035	 35.6	 1	 23.805	 23.805;
	535	 95.99	 14.001	 28.002	 0.0	 1.035	 128.1	 1	 95.99	 95.99;
	535	 80.631	 14.001	 28.002	 0.0	 1.035	 108.7	 1	 80.631	 80.631;
	549	 1.4	 0.35	 0.7	 0.0	 1.035	 1.7	 1	 1.4	 1.4;
	557	 25.724	 2.526	 5.052	 0.0	 1.035	 34.4	 1	 25.724	 25.724;
	557	 21.184	 2.526	 5.052	 0.0	 1.035	 28.5	 1	 21.184	 21.184;
	557	 19.671	 2.5	 5.0	 0.0	 1.035	 26.5	 1	 19.671	 19.671;
	557	 22.697	 2.526	 5.052	 0.0	 1.035	 30.4	 1	 22.697	 22.697;
	557	 25.724	 2.526	 5.052	 0.0	 1.035	 34.4	 1	 25.724	 25.724;
	558	 31.032	 2.532	 5.064	 0.0	 1.035	 34.4	 1	 31.032	 31.032;
	558	 31.032	 2.532	 5.064	 0.0	 1.035	 34.4	 1	 31.032	 31.032;
	558	 22.817	 2.5	 5.0	 0.0	 1.035	 26.5	 1	 22.817	 22.817;
	558	 30.119	 2.532	 5.064	 0.0	 1.035	 34.4	 1	 30.119	 30.119;
	594	 2.58	 0.675	 1.35	 0.0	 1.035	 4.5	 1	 2.58	 2.58;
	601	 5.05	 1.12	 2.24	 0.0	 1.035	 5.5	 1	 5.05	 5.05;
	622	 110.0	 15.0	 30.0	 0.0	 1.035	 114.0	 1	 110.0	 110.0;
	622	 0.0	 0.0	 30.0	 0.0	 1.035	 65.3	 0	 0.0	 0.0;
	626	 2.8	 0.56	 1.12	 0.0	 1.035	 3.0	 1	 2.8	 2.8;
	630	 5.61	 1.57	 3.14	 0.0	 1.035	 6.4	 1	 5.61	 5.61;
	631	 6.73	 1.57	 3.14	 0.0	 1.035	 7.4	 1	 6.73	 6.73;
	655	 1.23	 0.225	 0.45	 0.0	 1.035	 1.3	 1	 1.23	 1.23;
	660	 180.0	 50.0	 120.0	 -20.0	 1.035	 255.0	 1	 225.0	 135.0;
	661	 180.0	 50.0	 120.0	 -20.0	 1.035	 255.0	 1	 225.0	 135.0;
	667	 1.91	 0.505	 1.01	 0.0	 1.035	 2.2	 1	 1.91	 1.91;
	671	 9.53	 1.68	 3.36	 0.0	 1.035	 10.1	 1	 9.53	 9.53;
	673	 3.36	 0.56	 1.12	 0.0	 1.035	 4.4	 1	 3.36	 3.36;
	681	 190.0	 15.0	 30.0	 0.0	 1.035	 192.4	 1	 190.0	 190.0;
	681	 24.998	 15.0	 30.0	 0.0	 1.035	 77.5	 1	 24.998	 24.998;
	687	 11.21	 2.805	 5.61	 0.0	 1.035	 12.5	 1	 11.21	 11.21;
	699	 6.73	 1.68	 3.36	 0.0	 1.035	 7.5	 1	 6.73	 6.73;
	702	 1.12	 0.56	 1.12	 0.0	 1.035	 1.6	 1	 1.12	 1.12;
	712	 10.0	 2.0	 4.0	 0.0	 1.035	 10.8	 1	 10.0	 10.0;
	718	 1.57	 0.56	 1.12	 0.0	 1.035	 1.9	 1	 1.57	 1.57;
	722	 2.8	 0.56	 1.12	 0.0	 1.035	 3.0	 1	 2.8	 2.8;
	731	 1.68	 0.28	 0.56	 0.0	 1.035	 4.3	 1	 1.68	 1.68;
	736	 177.5	 50.0	 120.0	 -20.0	 1.035	 255.0	 1	 225.0	 130.0;
	740	 2.24	 0.0	 0.0	 0.0	 1.035	 4.3	 1	 2.24	 2.24;
	747	 5.83	 1.68	 3.36	 0.0	 1.035	 6.7	 1	 5.83	 5.83;
	759	 90.0	 15.0	 30.0	 0.0	 1.035	 105.2	 1	 90.0	 90.0;
	760	 0.0	 0.0	 0.0	 0.0	 1.035	 1.3	 0	 0.0	 0.0;
	778	 12.34	 15.0	 30.0	 0.0	 1.035	 32.4	 1	 12.34	 12.34;
	780	 1.68	 0.45	 0.9	 0.0	 1.035	 1.9	 1	 1.68	 1.68;
	783	 6.0	 1.5	 3.0	 0.0	 1.035	 6.7	 1	 6.0	 6.0;
	788	 2.0	 0.5	 1.0	 0.0	 1.035	 95.9	 1	 2.0	 2.0;
	792	 34.0	 11.5	 23.0	 0.0	 1.035	 71.8	 1	 68.0	 0.0;
	792	 0.0	 0.0	 23.0	 0.0	 1.035	 71.8	 0	 68.0	 0.0;
	792	 0.0	 0.0	 11.0	 0.0	 1.035	 23.7	 0	 21.0	 0.0;
	792	 0.0	 0.0	 10.0	 0.0	 1.035	 23.3	 0	 21.0	 0.0;
	803	 27.5	 4.999	 10.0	 -0.002	 1.035	 55.9	 1	 55.0	 0.0;
	804	 60.0	 5.0	 10.0	 0.0	 1.035	 120.4	 1	 120.0	 0.0;
	809	 0.0	 0.0	 0.0	 0.0	 1.035	 3.3	 0	 0.0	 0.0;
	815	 3.36	 1.01	 2.02	 0.0	 1.035	 3.9	 1	 3.36	 3.36;
	834	 1.12	 0.0	 0.0	 0.0	 1.035	 1.5	 1	 1.12	 1.12;
	840	 30.0	 4.05	 8.1	 0.0	 1.035	 51.6	 1	 30.0	 30.0;
	840	 30.0	 4.05	 8.1	 0.0	 1.035	 51.6	 1	 30.0	 30.0;
	844	 1.9	 0.225	 0.45	 0.0	 1.035	 3.5	 1	 1.9	 1.9;
	848	 3.01	 0.0	 0.0	 0.0	 1.035	 5.6	 1	 3.01	 3.01;
	854	 7.0	 0.675	 1.35	 0.0	 1.035	 14.6	 1	 7.0	 7.0;
	873	 68.0	 20.6	 41.2	 0.0	 1.035	 87.7	 1	 68.0	 68.0;
	876	 0.0	 0.0	 0.0	 0.0	 1.035	 1.9	 0	 0.0	 0.0;
	896	 0.0	 0.0	 45.0	 -10.0	 1.035	 65.8	 0	 0.0	 0.0;
	896	 0.0	 0.0	 45.0	 -10.0	 1.035	 71.1	 0	 0.0	 0.0;
	896	 55.0	 17.5	 45.0	 -10.0	 1.035	 71.1	 1	 55.0	 55.0;
	902	 0.111	 0.0	 0.0	 0.0	 1.035	 0.3	 1	 0.111	 0.111;
	903	 0.0	 0.0	 0.0	 0.0	 1.035	 2.5	 0	 0.0	 0.0;
	952	 2.6	 0.3	 0.6	 0.0	 1.035	 3.0	 1	 2.6	 2.6;
	958	 0.0	 0.0	 0.0	 0.0	 1.035	 2.5	 0	 0.0	 0.0;
	972	 27.0	 18.5	 32.0	 5.0	 1.035	 54.0	 1	 27.0	 27.0;
	972	 0.0	 0.0	 32.0	 5.0	 1.035	 42.5	 0	 0.0	 0.0;
	972	 3.0	 4.0	 7.0	 1.0	 1.035	 11.4	 1	 3.0	 3.0;
	972	 80.0	 35.0	 110.0	 -40.0	 1.035	 162.2	 1	 80.0	 80.0;
	973	 80.0	 35.0	 110.0	 -40.0	 1.035	 162.2	 1	 80.0	 80.0;
...
];

%% generator cost data
%	2	startup	shutdown	n	c(n-1)	...	c0
mpc.gencost = [
2	0.0	0.0	3	0.2	112.780000	0.000000;
2	0.0	0.0	3	0.2	112.780000	0.000000;
2	0.0	0.0	3	0.2	76.100000	0.000000;
2	0.0	0.0	3	0.2	76.100000	0.000000;
2	0.0	0.0	3	0.2	76.100000	0.000000;
2	0.0	0.0	3	0.2	76.100000	0.000000;
2	0.0	0.0	3	0.2	76.100000	0.000000;
2	0.0	0.0	3	0.2	76.100000	0.000000;
2	0.0	0.0	3	0.2	76.100000	0.000000;
2	0.0	0.0	3	0.2	76.100000	0.000000;
2	0.0	0.0	3	0.2	76.100000	0.000000;
2	0.0	0.0	3	0.2	76.100000	0.000000;
2	0.0	0.0	3	0.2	76.100000	0.000000;
2	0.0	0.0	3	0.2	102.050000	0.000000;
2	0.0	0.0	3	0.2	102.050000	0.000000;
2	0.0	0.0	3	0.2	102.050000	0.000000;
2	0.0	0.0	3	0.2	102.050000	0.000000;
2	0.0	0.0	3	0.2	102.050000	0.000000;
2	0.0	0.0	3	0.2	102.050000	0.000000;
2	0.0	0.0	3	0.2	102.050000	0.000000;
2	0.0	0.0	3	0.2	102.050000	0.000000;
2	0.0	0.0	3	0.2	105.350000	0.000000;
2	0.0	0.0	3	0.2	105.350000	0.000000;
2	0.0	0.0	3	0.2	105.350000	0.000000;
2	0.0	0.0	3	0.2	105.350000	0.000000;
2	0.0	0.0	3	0.2	105.350000	0.000000;
2	0.0	0.0	3	0.2	105.350000	0.000000;
2	0.0	0.0	3	0.2	105.350000	0.000000;
	2	 0.0	 0.0	 3	   0.000000	   0.000000	   0.000000;
2	0.0	0.0	3	0.2	95.310000	0.000000;
2	0.0	0.0	3	0.2	95.310000	0.000000;
2	0.0	0.0	3	0.2	95.310000	0.000000;
2	0.0	0.0	3	0.2	95.310000	0.000000;
2	0.0	0.0	3	0.2	95.310000	0.000000;
2	0.0	0.0	3	0.2	90.030000	0.000000;
2	0.0	0.0	3	0.2	90.030000	0.000000;
2	0.0	0.0	3	0.2	92.780000	0.000000;
2	0.0	0.0	3	0.2	92.780000	0.000000;
2	0.0	0.0	3	0.2	94.090000	0.000000;
2	0.0	0.0	3	0.2	94.090000	0.000000;
2	0.0	0.0	3	0.2	97.120000	0.000000;
2	0.0	0.0	3	0.2	97.120000	0.000000;
2	0.0	0.0	3	0.2	99.520000	0.000000;
2	0.0	0.0	3	0.2	91.160000	0.000000;
2	0.0	0.0	3	0.2	91.160000	0.000000;
2	0.0	0.0	3	0.2	91.160000	0.000000;
2	0.0	0.0	3	0.2	91.160000	0.000000;
2	0.0	0.0	3	0.2	91.160000	0.000000;
2	0.0	0.0	3	0.2	0.010000	0.000000;
2	0.0	0.0	3	0.2	0.010000	0.000000;
2	0.0	0.0	3	0.2	0.010000	0.000000;
2	0.0	0.0	3	0.2	0.010000	0.000000;
2	0.0	0.0	3	0.2	92.430000	0.000000;
2	0.0	0.0	3	0.2	92.430000	0.000000;
2	0.0	0.0	3	0.2	92.430000	0.000000;
2	0.0	0.0	3	0.2	96.420000	0.000000;
2	0.0	0.0	3	0.2	96.420000	0.000000;
2	0.0	0.0	3	0.2	96.420000	0.000000;
2	0.0	0.0	3	0.2	116.010000	0.000000;
2	0.0	0.0	3	0.2	116.010000	0.000000;
2	0.0	0.0	3	0.2	116.010000	0.000000;
2	0.0	0.0	3	0.2	116.010000	0.000000;
2	0.0	0.0	3	0.2	116.010000	0.000000;
2	0.0	0.0	3	0.2	116.010000	0.000000;
2	0.0	0.0	3	0.2	116.010000	0.000000;
2	0.0	0.0	3	0.2	98.840000	0.000000;
2	0.0	0.0	3	0.2	98.840000	0.000000;
2	0.0	0.0	3	0.2	98.840000	0.000000;
2	0.0	0.0	3	0.2	98.840000	0.000000;
2	0.0	0.0	3	0.2	98.840000	0.000000;
2	0.0	0.0	3	0.2	98.840000	0.000000;
2	0.0	0.0	3	0.2	98.840000	0.000000;
2	0.0	0.0	3	0.2	98.840000	0.000000;
2	0.0	0.0	3	0.2	98.840000	0.000000;
2	0.0	0.0	3	0.2	89.220000	0.000000;
2	0.0	0.0	3	0.2	89.220000	0.000000;
2	0.0	0.0	3	0.2	89.220000	0.000000;
2	0.0	0.0	3	0.2	89.220000	0.000000;
2	0.0	0.0	3	0.2	0.010000	0.000000;
2	0.0	0.0	3	0.2	0.010000	0.000000;
2	0.0	0.0	3	0.2	0.010000	0.000000;
2	0.0	0.0	3	0.2	0.010000	0.000000;
	2	 0.0	 0.0	 3	   0.000000	   0.000000	   0.000000;
	2	 0.0	 0.0	 3	   0.000000	   0.000000	   0.000000;
	2	 0.0	 0.0	 3	   0.000000	   0.000000	   0.000000;
	2	 0.0	 0.0	 3	   0.000000	   0.000000	   0.000000;
	2	 0.0	 0.0	 3	   0.000000	   0.000000	   0.000000;
2	0.0	0.0	3	0.2	76.100000	0.000000;
	2	 0.0	 0.0	 3	   0.000000	   0.000000	   0.000000;
	2	 0.0	 0.0	 3	   0.000000	   0.000000	   0.000000;
	2	 0.0	 0.0	 3	   0.000000	   0.000000	   0.000000;
	2	 0.0	 0.0	 3	   0.000000	   0.000000	   0.000000;
	2	 0.0	 0.0	 3	   0.000000	   0.000000	   0.000000;
	2	 0.0	 0.0	 3	   0.000000	   0.000000	   0.000000;
	2	 0.0	 0.0	 3	   0.000000	   0.000000	   0.000000;
	2	 0.0	 0.0	 3	   0.000000	   0.000000	   0.000000;
	2	 0.0	 0.0	 3	   0.000000	   0.000000	   0.000000;
	2	 0.0	 0.0	 3	   0.000000	   0.000000	   0.000000;
	2	 0.0	 0.0	 3	   0.000000	   0.000000	   0.000000;
	2	 0.0	 0.0	 3	   0.000000	   0.000000	   0.000000;
	2	 0.0	 0.0	 3	   0.000000	   0.000000	   0.000000;
	2	 0.0	 0.0	 3	   0.000000	   0.000000	   0.000000;
	2	 0.0	 0.0	 3	   0.000000	   0.000000	   0.000000;
	2	 0.0	 0.0	 3	   0.000000	   0.000000	   0.000000;
	2	 0.0	 0.0	 3	   0.000000	   0.000000	   0.000000;
	2	 0.0	 0.0	 3	   0.000000	   0.000000	   0.000000;
	2	 0.0	 0.0	 3	   0.000000	   0.000000	   0.000000;
	2	 0.0	 0.0	 3	   0.000000	   0.000000	   0.000000;
2	0.0	0.0	3	0.2	112.780000	0.000000;
2	0.0	0.0	3	0.2	112.780000	0.000000;
2	0.0	0.0	3	0.2	112.780000	0.000000;
	2	 0.0	 0.0	 3	   0.000000	   0.000000	   0.000000;
	2	 0.0	 0.0	 3	   0.000000	   0.000000	   0.000000;
	2	 0.0	 0.0	 3	   0.000000	   0.000000	   0.000000;
	2	 0.0	 0.0	 3	   0.000000	   0.000000	   0.000000;
	2	 0.0	 0.0	 3	   0.000000	   0.000000	   0.000000;
	2	 0.0	 0.0	 3	   0.000000	   0.000000	   0.000000;
	2	 0.0	 0.0	 3	   0.000000	   0.000000	   0.000000;
	2	 0.0	 0.0	 3	   0.000000	   0.000000	   0.000000;
	2	 0.0	 0.0	 3	   0.000000	   0.000000	   0.000000;
	2	 0.0	 0.0	 3	   0.000000	   0.000000	   0.000000;
	2	 0.0	 0.0	 3	   0.000000	   0.000000	   0.000000;
	2	 0.0	 0.0	 3	   0.000000	   0.000000	   0.000000;
	2	 0.0	 0.0	 3	   0.000000	   0.000000	   0.000000;
	2	 0.0	 0.0	 3	   0.000000	   0.000000	   0.000000;
	2	 0.0	 0.0	 3	   0.000000	   0.000000	   0.000000;
	2	 0.0	 0.0	 3	   0.000000	   0.000000	   0.000000;
	2	 0.0	 0.0	 3	   0.000000	   0.000000	   0.000000;
	2	 0.0	 0.0	 3	   0.000000	   0.000000	   0.000000;
	2	 0.0	 0.0	 3	   0.000000	   0.000000	   0.000000;
	2	 0.0	 0.0	 3	   0.000000	   0.000000	   0.000000;
	2	 0.0	 0.0	 3	   0.000000	   0.000000	   0.000000;
	2	 0.0	 0.0	 3	   0.000000	   0.000000	   0.000000;
	2	 0.0	 0.0	 3	   0.000000	   0.000000	   0.000000;
	2	 0.0	 0.0	 3	   0.000000	   0.000000	   0.000000;
	2	 0.0	 0.0	 3	   0.000000	   0.000000	   0.000000;
	2	 0.0	 0.0	 3	   0.000000	   0.000000	   0.000000;
	2	 0.0	 0.0	 3	   0.000000	   0.000000	   0.000000;
	2	 0.0	 0.0	 3	   0.000000	   0.000000	   0.000000;
	2	 0.0	 0.0	 3	   0.000000	   0.000000	   0.000000;
	2	 0.0	 0.0	 3	   0.000000	   0.000000	   0.000000;
	2	 0.0	 0.0	 3	   0.000000	   0.000000	   0.000000;
	2	 0.0	 0.0	 3	   0.000000	   0.000000	   0.000000;
	2	 0.0	 0.0	 3	   0.000000	   0.000000	   0.000000;
	2	 0.0	 0.0	 3	   0.000000	   0.000000	   0.000000;
	2	 0.0	 0.0	 3	   0.000000	   0.000000	   0.000000;
	2	 0.0	 0.0	 3	   0.000000	   0.000000	   0.000000;
	2	 0.0	 0.0	 3	   0.000000	   0.000000	   0.000000;
	2	 0.0	 0.0	 3	   0.000000	   0.000000	   0.000000;
2	0.0	0.0	3	0.2	102.050000	0.000000;
2	0.0	0.0	3	0.2	102.050000	0.000000;
	2	 0.0	 0.0	 3	   0.000000	   0.000000	   0.000000;
	2	 0.0	 0.0	 3	   0.000000	   0.000000	   0.000000;
	2	 0.0	 0.0	 3	   0.000000	   0.000000	   0.000000;
	2	 0.0	 0.0	 3	   0.000000	   0.000000	   0.000000;
	2	 0.0	 0.0	 3	   0.000000	   0.000000	   0.000000;
	2	 0.0	 0.0	 3	   0.000000	   0.000000	   0.000000;
	2	 0.0	 0.0	 3	   0.000000	   0.000000	   0.000000;
	2	 0.0	 0.0	 3	   0.000000	   0.000000	   0.000000;
	2	 0.0	 0.0	 3	   0.000000	   0.000000	   0.000000;
	2	 0.0	 0.0	 3	   0.000000	   0.000000	   0.000000;
	2	 0.0	 0.0	 3	   0.000000	   0.000000	   0.000000;
	2	 0.0	 0.0	 3	   0.000000	   0.000000	   0.000000;
2	0.0	0.0	3	0.2	105.350000	0.000000;
	2	 0.0	 0.0	 3	   0.000000	   0.000000	   0.000000;
	2	 0.0	 0.0	 3	   0.000000	   0.000000	   0.000000;
	2	 0.0	 0.0	 3	   0.000000	   0.000000	   0.000000;
	2	 0.0	 0.0	 3	   0.000000	   0.000000	   0.000000;
	2	 0.0	 0.0	 3	   0.000000	   0.000000	   0.000000;
	2	 0.0	 0.0	 3	   0.000000	   0.000000	   0.000000;
	2	 0.0	 0.0	 3	   0.000000	   0.000000	   0.000000;
	2	 0.0	 0.0	 3	   0.000000	   0.000000	   0.000000;
2	0.0	0.0	3	0.2	0.010000	0.000000;
2	0.0	0.0	3	0.2	0.010000	0.000000;
2	0.0	0.0	3	0.2	0.010000	0.000000;
2	0.0	0.0	3	0.2	0.010000	0.000000;
2	0.0	0.0	3	0.2	111.630000	0.000000;
2	0.0	0.0	3	0.2	111.630000	0.000000;
	2	 0.0	 0.0	 3	   0.000000	   0.000000	   0.000000;
	2	 0.0	 0.0	 3	   0.000000	   0.000000	   0.000000;
	2	 0.0	 0.0	 3	   0.000000	   0.000000	   0.000000;
	2	 0.0	 0.0	 3	   0.000000	   0.000000	   0.000000;
	2	 0.0	 0.0	 3	   0.000000	   0.000000	   0.000000;
	2	 0.0	 0.0	 3	   0.000000	   0.000000	   0.000000;
	2	 0.0	 0.0	 3	   0.000000	   0.000000	   0.000000;
	2	 0.0	 0.0	 3	   0.000000	   0.000000	   0.000000;
	2	 0.0	 0.0	 3	   0.000000	   0.000000	   0.000000;
	2	 0.0	 0.0	 3	   0.000000	   0.000000	   0.000000;
	2	 0.0	 0.0	 3	   0.000000	   0.000000	   0.000000;
	2	 0.0	 0.0	 3	   0.000000	   0.000000	   0.000000;
	2	 0.0	 0.0	 3	   0.000000	   0.000000	   0.000000;
	2	 0.0	 0.0	 3	   0.000000	   0.000000	   0.000000;
	2	 0.0	 0.0	 3	   0.000000	   0.000000	   0.000000;
	2	 0.0	 0.0	 3	   0.000000	   0.000000	   0.000000;
	2	 0.0	 0.0	 3	   0.000000	   0.000000	   0.000000;
	2	 0.0	 0.0	 3	   0.000000	   0.000000	   0.000000;
	2	 0.0	 0.0	 3	   0.000000	   0.000000	   0.000000;
	2	 0.0	 0.0	 3	   0.000000	   0.000000	   0.000000;
	2	 0.0	 0.0	 3	   0.000000	   0.000000	   0.000000;
	2	 0.0	 0.0	 3	   0.000000	   0.000000	   0.000000;
...
];

%% storage data
%	bus	energy	energy_rating	charge_rating	discharge_rating	thermal_rating	qmin	qmax	r	x	standby_loss	status
mpc.storage = [
	2733	0.0	0.0	1.00	951.0960	475.5480	342.3946	0.9	0.85	1000	-1000	1000	0.1	0.01	0	0	1;
	2738	0.0	0.0	1.00	697.7760	348.8880	251.1994	0.9	0.85	1000	-1000	1000	0.1	0.01	0	0	1;
	2732	0.0	0.0	1.00	463.1550	231.5775	166.7358	0.9	0.85	1000	-1000	1000	0.1	0.01	0	0	1;
	2734	0.0	0.0	1.00	405.9570	202.9785	146.1445	0.9	0.85	1000	-1000	1000	0.1	0.01	0	0	1;
	59	0.0	0.0	1.00	251.2770	125.6385	90.4597	0.9	0.85	1000	-1000	1000	0.1	0.01	0	0	1;
	2562	0.0	0.0	1.00	196.3860	98.1930	70.6990	0.9	0.85	1000	-1000	1000	0.1	0.01	0	0	1;
	729	0.0	0.0	1.00	157.0485	78.5242	56.5375	0.9	0.85	1000	-1000	1000	0.1	0.01	0	0	1;
	1138	0.0	0.0	1.00	154.9290	77.4645	55.7744	0.9	0.85	1000	-1000	1000	0.1	0.01	0	0	1;
	306	0.0	0.0	1.00	145.9125	72.9563	52.5285	0.9	0.85	1000	-1000	1000	0.1	0.01	0	0	1;
	364	0.0	0.0	1.00	136.6965	68.3483	49.2107	0.9	0.85	1000	-1000	1000	0.1	0.01	0	0	1;
	1187	0.0	0.0	1.00	135.3135	67.6568	48.7129	0.9	0.85	1000	-1000	1000	0.1	0.01	0	0	1;
	534	0.0	0.0	1.00	133.5135	66.7567	48.0649	0.9	0.85	1000	-1000	1000	0.1	0.01	0	0	1;
	2047	0.0	0.0	1.00	130.7520	65.3760	47.0707	0.9	0.85	1000	-1000	1000	0.1	0.01	0	0	1;
	27	0.0	0.0	1.00	128.2395	64.1197	46.1662	0.9	0.85	1000	-1000	1000	0.1	0.01	0	0	1;
	365	0.0	0.0	1.00	126.0645	63.0323	45.3832	0.9	0.85	1000	-1000	1000	0.1	0.01	0	0	1;
	1245	0.0	0.0	1.00	123.9315	61.9657	44.6153	0.9	0.85	1000	-1000	1000	0.1	0.01	0	0	1;
	2737	0.0	0.0	1.00	119.3970	59.6985	42.9829	0.9	0.85	1000	-1000	1000	0.1	0.01	0	0	1;
	2746	0.0	0.0	1.00	97.5000	48.7500	35.1000	0.9	0.85	1000	-1000	1000	0.1	0.01	0	0	1;
	307	0.0	0.0	1.00	93.3300	46.6650	33.5988	0.9	0.85	1000	-1000	1000	0.1	0.01	0	0	1;
	840	0.0	0.0	1.00	91.6785	45.8392	33.0043	0.9	0.85	1000	-1000	1000	0.1	0.01	0	0	1;
	29	0.0	0.0	1.00	90.1455	45.0727	32.4524	0.9	0.85	1000	-1000	1000	0.1	0.01	0	0	1;
	28	0.0	0.0	1.00	90.0000	45.0000	32.4000	0.9	0.85	1000	-1000	1000	0.1	0.01	0	0	1;
	535	0.0	0.0	1.00	88.6380	44.3190	31.9097	0.9	0.85	1000	-1000	1000	0.1	0.01	0	0	1;
	1186	0.0	0.0	1.00	85.4805	42.7403	30.7730	0.9	0.85	1000	-1000	1000	0.1	0.01	0	0	1;
	2112	0.0	0.0	1.00	83.9955	41.9977	30.2384	0.9	0.85	1000	-1000	1000	0.1	0.01	0	0	1;
	507	0.0	0.0	1.00	83.5365	41.7683	30.0731	0.9	0.85	1000	-1000	1000	0.1	0.01	0	0	1;
	2743	0.0	0.0	1.00	82.5000	41.2500	29.7000	0.9	0.85	1000	-1000	1000	0.1	0.01	0	0	1;
	525	0.0	0.0	1.00	82.0185	41.0093	29.5267	0.9	0.85	1000	-1000	1000	0.1	0.01	0	0	1;
	557	0.0	0.0	1.00	81.5220	40.7610	29.3479	0.9	0.85	1000	-1000	1000	0.1	0.01	0	0	1;
	2744	0.0	0.0	1.00	81.0000	40.5000	29.1600	0.9	0.85	1000	-1000	1000	0.1	0.01	0	0	1;
	215	0.0	0.0	1.00	77.9715	38.9858	28.0697	0.9	0.85	1000	-1000	1000	0.1	0.01	0	0	1;
	329	0.0	0.0	1.00	77.6145	38.8073	27.9412	0.9	0.85	1000	-1000	1000	0.1	0.01	0	0	1;
	2684	0.0	0.0	1.00	76.7130	38.3565	27.6167	0.9	0.85	1000	-1000	1000	0.1	0.01	0	0	1;
	712	0.0	0.0	1.00	76.0110	38.0055	27.3640	0.9	0.85	1000	-1000	1000	0.1	0.01	0	0	1;
	523	0.0	0.0	1.00	75.9435	37.9718	27.3397	0.9	0.85	1000	-1000	1000	0.1	0.01	0	0	1;
	558	0.0	0.0	1.00	74.0460	37.0230	26.6566	0.9	0.85	1000	-1000	1000	0.1	0.01	0	0	1;
	542	0.0	0.0	1.00	72.9060	36.4530	26.2462	0.9	0.85	1000	-1000	1000	0.1	0.01	0	0	1;
	549	0.0	0.0	1.00	71.3865	35.6932	25.6991	0.9	0.85	1000	-1000	1000	0.1	0.01	0	0	1;
	26	0.0	0.0	1.00	70.1070	35.0535	25.2385	0.9	0.85	1000	-1000	1000	0.1	0.01	0	0	1;
	530	0.0	0.0	1.00	69.8670	34.9335	25.1521	0.9	0.85	1000	-1000	1000	0.1	0.01	0	0	1;
	2042	0.0	0.0	1.00	69.8145	34.9072	25.1332	0.9	0.85	1000	-1000	1000	0.1	0.01	0	0	1;
	1011	0.0	0.0	1.00	69.4530	34.7265	25.0031	0.9	0.85	1000	-1000	1000	0.1	0.01	0	0	1;
	2284	0.0	0.0	1.00	69.3105	34.6553	24.9518	0.9	0.85	1000	-1000	1000	0.1	0.01	0	0	1;
	2470	0.0	0.0	1.00	69.0420	34.5210	24.8551	0.9	0.85	1000	-1000	1000	0.1	0.01	0	0	1;
	2707	0.0	0.0	1.00	69.0420	34.5210	24.8551	0.9	0.85	1000	-1000	1000	0.1	0.01	0	0	1;
	362	0.0	0.0	1.00	68.3490	34.1745	24.6056	0.9	0.85	1000	-1000	1000	0.1	0.01	0	0	1;
	363	0.0	0.0	1.00	68.3490	34.1745	24.6056	0.9	0.85	1000	-1000	1000	0.1	0.01	0	0	1;
	402	0.0	0.0	1.00	67.1325	33.5663	24.1677	0.9	0.85	1000	-1000	1000	0.1	0.01	0	0	1;
	543	0.0	0.0	1.00	66.8295	33.4147	24.0586	0.9	0.85	1000	-1000	1000	0.1	0.01	0	0	1;
	2688	0.0	0.0	1.00	65.9730	32.9865	23.7503	0.9	0.85	1000	-1000	1000	0.1	0.01	0	0	1;
	1246	0.0	0.0	1.00	64.8060	32.4030	23.3302	0.9	0.85	1000	-1000	1000	0.1	0.01	0	0	1;
	501	0.0	0.0	1.00	63.7920	31.8960	22.9651	0.9	0.85	1000	-1000	1000	0.1	0.01	0	0	1;
	1930	0.0	0.0	1.00	63.0870	31.5435	22.7113	0.9	0.85	1000	-1000	1000	0.1	0.01	0	0	1;
	547	0.0	0.0	1.00	62.2740	31.1370	22.4186	0.9	0.85	1000	-1000	1000	0.1	0.01	0	0	1;
	2508	0.0	0.0	1.00	61.5240	30.7620	22.1486	0.9	0.85	1000	-1000	1000	0.1	0.01	0	0	1;
	264	0.0	0.0	1.00	60.7545	30.3773	21.8716	0.9	0.85	1000	-1000	1000	0.1	0.01	0	0	1;
	310	0.0	0.0	1.00	59.1780	29.5890	21.3041	0.9	0.85	1000	-1000	1000	0.1	0.01	0	0	1;
	2427	0.0	0.0	1.00	57.8220	28.9110	20.8159	0.9	0.85	1000	-1000	1000	0.1	0.01	0	0	1;
	265	0.0	0.0	1.00	57.7185	28.8592	20.7787	0.9	0.85	1000	-1000	1000	0.1	0.01	0	0	1;
	86	0.0	0.0	1.00	56.8395	28.4198	20.4622	0.9	0.85	1000	-1000	1000	0.1	0.01	0	0	1;
	1779	0.0	0.0	1.00	56.6295	28.3148	20.3866	0.9	0.85	1000	-1000	1000	0.1	0.01	0	0	1;
	1440	0.0	0.0	1.00	55.8555	27.9278	20.1080	0.9	0.85	1000	-1000	1000	0.1	0.01	0	0	1;
	601	0.0	0.0	1.00	54.0255	27.0128	19.4492	0.9	0.85	1000	-1000	1000	0.1	0.01	0	0	1;
	308	0.0	0.0	1.00	53.8770	26.9385	19.3957	0.9	0.85	1000	-1000	1000	0.1	0.01	0	0	1;
	2706	0.0	0.0	1.00	53.7000	26.8500	19.3320	0.9	0.85	1000	-1000	1000	0.1	0.01	0	0	1;
	1435	0.0	0.0	1.00	53.4090	26.7045	19.2272	0.9	0.85	1000	-1000	1000	0.1	0.01	0	0	1;
	541	0.0	0.0	1.00	53.1600	26.5800	19.1376	0.9	0.85	1000	-1000	1000	0.1	0.01	0	0	1;
	2435	0.0	0.0	1.00	52.6005	26.3002	18.9362	0.9	0.85	1000	-1000	1000	0.1	0.01	0	0	1;
	82	0.0	0.0	1.00	52.5000	26.2500	18.9000	0.9	0.85	1000	-1000	1000	0.1	0.01	0	0	1;
	1247	0.0	0.0	1.00	52.1325	26.0663	18.7677	0.9	0.85	1000	-1000	1000	0.1	0.01	0	0	1;
	726	0.0	0.0	1.00	51.8235	25.9117	18.6565	0.9	0.85	1000	-1000	1000	0.1	0.01	0	0	1;
	2390	0.0	0.0	1.00	51.7350	25.8675	18.6246	0.9	0.85	1000	-1000	1000	0.1	0.01	0	0	1;
	496	0.0	0.0	1.00	51.6420	25.8210	18.5911	0.9	0.85	1000	-1000	1000	0.1	0.01	0	0	1;
	532	0.0	0.0	1.00	51.6420	25.8210	18.5911	0.9	0.85	1000	-1000	1000	0.1	0.01	0	0	1;
	2123	0.0	0.0	1.00	51.0645	25.5322	18.3832	0.9	0.85	1000	-1000	1000	0.1	0.01	0	0	1;
	2657	0.0	0.0	1.00	50.6310	25.3155	18.2272	0.9	0.85	1000	-1000	1000	0.1	0.01	0	0	1;
	2722	0.0	0.0	1.00	50.6310	25.3155	18.2272	0.9	0.85	1000	-1000	1000	0.1	0.01	0	0	1;
	950	0.0	0.0	1.00	49.5750	24.7875	17.8470	0.9	0.85	1000	-1000	1000	0.1	0.01	0	0	1;
	2741	0.0	0.0	1.00	49.5000	24.7500	17.8200	0.9	0.85	1000	-1000	1000	0.1	0.01	0	0	1;
	2742	0.0	0.0	1.00	49.5000	24.7500	17.8200	0.9	0.85	1000	-1000	1000	0.1	0.01	0	0	1;
	2101	0.0	0.0	1.00	49.2870	24.6435	17.7433	0.9	0.85	1000	-1000	1000	0.1	0.01	0	0	1;
	1136	0.0	0.0	1.00	48.0810	24.0405	17.3092	0.9	0.85	1000	-1000	1000	0.1	0.01	0	0	1;
	2537	0.0	0.0	1.00	47.5620	23.7810	17.1223	0.9	0.85	1000	-1000	1000	0.1	0.01	0	0	1;
	2239	0.0	0.0	1.00	47.5065	23.7533	17.1023	0.9	0.85	1000	-1000	1000	0.1	0.01	0	0	1;
	2351	0.0	0.0	1.00	47.0160	23.5080	16.9258	0.9	0.85	1000	-1000	1000	0.1	0.01	0	0	1;
	1359	0.0	0.0	1.00	46.3905	23.1953	16.7006	0.9	0.85	1000	-1000	1000	0.1	0.01	0	0	1;
	311	0.0	0.0	1.00	46.2795	23.1397	16.6606	0.9	0.85	1000	-1000	1000	0.1	0.01	0	0	1;
	2249	0.0	0.0	1.00	46.2540	23.1270	16.6514	0.9	0.85	1000	-1000	1000	0.1	0.01	0	0	1;
	1396	0.0	0.0	1.00	46.2315	23.1158	16.6433	0.9	0.85	1000	-1000	1000	0.1	0.01	0	0	1;
	2692	0.0	0.0	1.00	46.0275	23.0137	16.5699	0.9	0.85	1000	-1000	1000	0.1	0.01	0	0	1;
	155	0.0	0.0	1.00	45.8325	22.9162	16.4997	0.9	0.85	1000	-1000	1000	0.1	0.01	0	0	1;
	1362	0.0	0.0	1.00	45.3705	22.6852	16.3334	0.9	0.85	1000	-1000	1000	0.1	0.01	0	0	1;
	998	0.0	0.0	1.00	44.8080	22.4040	16.1309	0.9	0.85	1000	-1000	1000	0.1	0.01	0	0	1;
	2032	0.0	0.0	1.00	44.4150	22.2075	15.9894	0.9	0.85	1000	-1000	1000	0.1	0.01	0	0	1;
	495	0.0	0.0	1.00	44.0475	22.0237	15.8571	0.9	0.85	1000	-1000	1000	0.1	0.01	0	0	1;
	538	0.0	0.0	1.00	44.0475	22.0237	15.8571	0.9	0.85	1000	-1000	1000	0.1	0.01	0	0	1;
	2077	0.0	0.0	1.00	43.7415	21.8708	15.7469	0.9	0.85	1000	-1000	1000	0.1	0.01	0	0	1;
	1417	0.0	0.0	1.00	43.6800	21.8400	15.7248	0.9	0.85	1000	-1000	1000	0.1	0.01	0	0	1;
	2721	0.0	0.0	1.00	42.9600	21.4800	15.4656	0.9	0.85	1000	-1000	1000	0.1	0.01	0	0	1;
	2534	0.0	0.0	1.00	42.9585	21.4793	15.4651	0.9	0.85	1000	-1000	1000	0.1	0.01	0	0	1;
	126	0.0	0.0	1.00	42.7035	21.3518	15.3733	0.9	0.85	1000	-1000	1000	0.1	0.01	0	0	1;
	663	0.0	0.0	1.00	42.4035	21.2017	15.2653	0.9	0.85	1000	-1000	1000	0.1	0.01	0	0	1;
	127	0.0	0.0	1.00	42.0000	21.0000	15.1200	0.9	0.85	1000	-1000	1000	0.1	0.01	0	0	1;
	804	0.0	0.0	1.00	41.5635	20.7817	14.9629	0.9	0.85	1000	-1000	1000	0.1	0.01	0	0	1;
	859	0.0	0.0	1.00	41.1375	20.5688	14.8095	0.9	0.85	1000	-1000	1000	0.1	0.01	0	0	1;
	1877	0.0	0.0	1.00	40.9575	20.4787	14.7447	0.9	0.85	1000	-1000	1000	0.1	0.01	0	0	1;
	652	0.0	0.0	1.00	40.8330	20.4165	14.6999	0.9	0.85	1000	-1000	1000	0.1	0.01	0	0	1;
	2150	0.0	0.0	1.00	40.6185	20.3092	14.6227	0.9	0.85	1000	-1000	1000	0.1	0.01	0	0	1;
	78	0.0	0.0	1.00	40.5000	20.2500	14.5800	0.9	0.85	1000	-1000	1000	0.1	0.01	0	0	1;
	995	0.0	0.0	1.00	40.3530	20.1765	14.5271	0.9	0.85	1000	-1000	1000	0.1	0.01	0	0	1;
	1021	0.0	0.0	1.00	40.3215	20.1608	14.5157	0.9	0.85	1000	-1000	1000	0.1	0.01	0	0	1;
	671	0.0	0.0	1.00	40.0470	20.0235	14.4169	0.9	0.85	1000	-1000	1000	0.1	0.01	0	0	1;
	401	0.0	0.0	1.00	39.7950	19.8975	14.3262	0.9	0.85	1000	-1000	1000	0.1	0.01	0	0	1;
	2083	0.0	0.0	1.00	39.7350	19.8675	14.3046	0.9	0.85	1000	-1000	1000	0.1	0.01	0	0	1;
	1943	0.0	0.0	1.00	39.7200	19.8600	14.2992	0.9	0.85	1000	-1000	1000	0.1	0.01	0	0	1;
	2366	0.0	0.0	1.00	39.5280	19.7640	14.2301	0.9	0.85	1000	-1000	1000	0.1	0.01	0	0	1;
	412	0.0	0.0	1.00	39.4905	19.7453	14.2166	0.9	0.85	1000	-1000	1000	0.1	0.01	0	0	1;
	994	0.0	0.0	1.00	39.4050	19.7025	14.1858	0.9	0.85	1000	-1000	1000	0.1	0.01	0	0	1;
	2676	0.0	0.0	1.00	39.2775	19.6387	14.1399	0.9	0.85	1000	-1000	1000	0.1	0.01	0	0	1;
	732	0.0	0.0	1.00	39.2625	19.6313	14.1345	0.9	0.85	1000	-1000	1000	0.1	0.01	0	0	1;
	2446	0.0	0.0	1.00	39.2610	19.6305	14.1340	0.9	0.85	1000	-1000	1000	0.1	0.01	0	0	1;
	2314	0.0	0.0	1.00	39.0165	19.5083	14.0459	0.9	0.85	1000	-1000	1000	0.1	0.01	0	0	1;
	305	0.0	0.0	1.00	38.5800	19.2900	13.8888	0.9	0.85	1000	-1000	1000	0.1	0.01	0	0	1;
	304	0.0	0.0	1.00	38.5785	19.2893	13.8883	0.9	0.85	1000	-1000	1000	0.1	0.01	0	0	1;
	1628	0.0	0.0	1.00	38.2920	19.1460	13.7851	0.9	0.85	1000	-1000	1000	0.1	0.01	0	0	1;
	2478	0.0	0.0	1.00	38.0505	19.0252	13.6982	0.9	0.85	1000	-1000	1000	0.1	0.01	0	0	1;
	1858	0.0	0.0	1.00	37.9860	18.9930	13.6750	0.9	0.85	1000	-1000	1000	0.1	0.01	0	0	1;
	539	0.0	0.0	1.00	37.9725	18.9863	13.6701	0.9	0.85	1000	-1000	1000	0.1	0.01	0	0	1;
	540	0.0	0.0	1.00	37.9725	18.9863	13.6701	0.9	0.85	1000	-1000	1000	0.1	0.01	0	0	1;
	506	0.0	0.0	1.00	37.9710	18.9855	13.6696	0.9	0.85	1000	-1000	1000	0.1	0.01	0	0	1;
	522	0.0	0.0	1.00	37.9710	18.9855	13.6696	0.9	0.85	1000	-1000	1000	0.1	0.01	0	0	1;
	2379	0.0	0.0	1.00	37.9575	18.9787	13.6647	0.9	0.85	1000	-1000	1000	0.1	0.01	0	0	1;
	2434	0.0	0.0	1.00	37.9185	18.9593	13.6507	0.9	0.85	1000	-1000	1000	0.1	0.01	0	0	1;
	1954	0.0	0.0	1.00	37.7760	18.8880	13.5994	0.9	0.85	1000	-1000	1000	0.1	0.01	0	0	1;
	675	0.0	0.0	1.00	37.6920	18.8460	13.5691	0.9	0.85	1000	-1000	1000	0.1	0.01	0	0	1;
	753	0.0	0.0	1.00	37.6920	18.8460	13.5691	0.9	0.85	1000	-1000	1000	0.1	0.01	0	0	1;
	2645	0.0	0.0	1.00	37.5900	18.7950	13.5324	0.9	0.85	1000	-1000	1000	0.1	0.01	0	0	1;
	2648	0.0	0.0	1.00	37.5885	18.7943	13.5319	0.9	0.85	1000	-1000	1000	0.1	0.01	0	0	1;
	2745	0.0	0.0	1.00	37.5000	18.7500	13.5000	0.9	0.85	1000	-1000	1000	0.1	0.01	0	0	1;
	1385	0.0	0.0	1.00	37.2045	18.6023	13.3936	0.9	0.85	1000	-1000	1000	0.1	0.01	0	0	1;
	607	0.0	0.0	1.00	36.9540	18.4770	13.3034	0.9	0.85	1000	-1000	1000	0.1	0.01	0	0	1;
	2717	0.0	0.0	1.00	36.8220	18.4110	13.2559	0.9	0.85	1000	-1000	1000	0.1	0.01	0	0	1;
	2277	0.0	0.0	1.00	36.8010	18.4005	13.2484	0.9	0.85	1000	-1000	1000	0.1	0.01	0	0	1;
	255	0.0	0.0	1.00	36.4530	18.2265	13.1231	0.9	0.85	1000	-1000	1000	0.1	0.01	0	0	1;
	371	0.0	0.0	1.00	36.4530	18.2265	13.1231	0.9	0.85	1000	-1000	1000	0.1	0.01	0	0	1;
	452	0.0	0.0	1.00	36.4530	18.2265	13.1231	0.9	0.85	1000	-1000	1000	0.1	0.01	0	0	1;
	718	0.0	0.0	1.00	36.2775	18.1387	13.0599	0.9	0.85	1000	-1000	1000	0.1	0.01	0	0	1;
	929	0.0	0.0	1.00	36.2040	18.1020	13.0334	0.9	0.85	1000	-1000	1000	0.1	0.01	0	0	1;
	2610	0.0	0.0	1.00	36.0540	18.0270	12.9794	0.9	0.85	1000	-1000	1000	0.1	0.01	0	0	1;
	44	0.0	0.0	1.00	36.0000	18.0000	12.9600	0.9	0.85	1000	-1000	1000	0.1	0.01	0	0	1;
	860	0.0	0.0	1.00	35.9595	17.9797	12.9454	0.9	0.85	1000	-1000	1000	0.1	0.01	0	0	1;
	2308	0.0	0.0	1.00	35.7705	17.8852	12.8774	0.9	0.85	1000	-1000	1000	0.1	0.01	0	0	1;
	2208	0.0	0.0	1.00	35.5605	17.7803	12.8018	0.9	0.85	1000	-1000	1000	0.1	0.01	0	0	1;
	510	0.0	0.0	1.00	35.3895	17.6947	12.7402	0.9	0.85	1000	-1000	1000	0.1	0.01	0	0	1;
	847	0.0	0.0	1.00	35.2305	17.6152	12.6830	0.9	0.85	1000	-1000	1000	0.1	0.01	0	0	1;
	1777	0.0	0.0	1.00	35.1615	17.5807	12.6581	0.9	0.85	1000	-1000	1000	0.1	0.01	0	0	1;
	2512	0.0	0.0	1.00	35.1345	17.5672	12.6484	0.9	0.85	1000	-1000	1000	0.1	0.01	0	0	1;
	2071	0.0	0.0	1.00	35.0115	17.5057	12.6041	0.9	0.85	1000	-1000	1000	0.1	0.01	0	0	1;
	2269	0.0	0.0	1.00	34.9620	17.4810	12.5863	0.9	0.85	1000	-1000	1000	0.1	0.01	0	0	1;
	747	0.0	0.0	1.00	34.8645	17.4322	12.5512	0.9	0.85	1000	-1000	1000	0.1	0.01	0	0	1;
	2674	0.0	0.0	1.00	34.8270	17.4135	12.5377	0.9	0.85	1000	-1000	1000	0.1	0.01	0	0	1;
	972	0.0	0.0	1.00	34.7535	17.3768	12.5113	0.9	0.85	1000	-1000	1000	0.1	0.01	0	0	1;
	2449	0.0	0.0	1.00	34.6500	17.3250	12.4740	0.9	0.85	1000	-1000	1000	0.1	0.01	0	0	1;
	166	0.0	0.0	1.00	34.6155	17.3078	12.4616	0.9	0.85	1000	-1000	1000	0.1	0.01	0	0	1;
	1342	0.0	0.0	1.00	34.5330	17.2665	12.4319	0.9	0.85	1000	-1000	1000	0.1	0.01	0	0	1;
	1341	0.0	0.0	1.00	34.5315	17.2658	12.4313	0.9	0.85	1000	-1000	1000	0.1	0.01	0	0	1;
	2702	0.0	0.0	1.00	34.5195	17.2598	12.4270	0.9	0.85	1000	-1000	1000	0.1	0.01	0	0	1;
	2317	0.0	0.0	1.00	34.4745	17.2372	12.4108	0.9	0.85	1000	-1000	1000	0.1	0.01	0	0	1;
	1566	0.0	0.0	1.00	34.4250	17.2125	12.3930	0.9	0.85	1000	-1000	1000	0.1	0.01	0	0	1;
	2383	0.0	0.0	1.00	34.4070	17.2035	12.3865	0.9	0.85	1000	-1000	1000	0.1	0.01	0	0	1;
	2599	0.0	0.0	1.00	34.3680	17.1840	12.3725	0.9	0.85	1000	-1000	1000	0.1	0.01	0	0	1;
	2709	0.0	0.0	1.00	34.3680	17.1840	12.3725	0.9	0.85	1000	-1000	1000	0.1	0.01	0	0	1;
	999	0.0	0.0	1.00	34.1235	17.0617	12.2845	0.9	0.85	1000	-1000	1000	0.1	0.01	0	0	1;
	1042	0.0	0.0	1.00	33.8940	16.9470	12.2018	0.9	0.85	1000	-1000	1000	0.1	0.01	0	0	1;
	873	0.0	0.0	1.00	33.8685	16.9342	12.1927	0.9	0.85	1000	-1000	1000	0.1	0.01	0	0	1;
	976	0.0	0.0	1.00	33.8355	16.9177	12.1808	0.9	0.85	1000	-1000	1000	0.1	0.01	0	0	1;
	2338	0.0	0.0	1.00	33.7980	16.8990	12.1673	0.9	0.85	1000	-1000	1000	0.1	0.01	0	0	1;
	676	0.0	0.0	1.00	33.7665	16.8833	12.1559	0.9	0.85	1000	-1000	1000	0.1	0.01	0	0	1;
	2471	0.0	0.0	1.00	33.7530	16.8765	12.1511	0.9	0.85	1000	-1000	1000	0.1	0.01	0	0	1;
	2613	0.0	0.0	1.00	33.7530	16.8765	12.1511	0.9	0.85	1000	-1000	1000	0.1	0.01	0	0	1;
	2703	0.0	0.0	1.00	33.7530	16.8765	12.1511	0.9	0.85	1000	-1000	1000	0.1	0.01	0	0	1;
	927	0.0	0.0	1.00	33.7500	16.8750	12.1500	0.9	0.85	1000	-1000	1000	0.1	0.01	0	0	1;
	2687	0.0	0.0	1.00	33.6000	16.8000	12.0960	0.9	0.85	1000	-1000	1000	0.1	0.01	0	0	1;
	2273	0.0	0.0	1.00	33.5460	16.7730	12.0766	0.9	0.85	1000	-1000	1000	0.1	0.01	0	0	1;
	2349	0.0	0.0	1.00	33.4545	16.7273	12.0436	0.9	0.85	1000	-1000	1000	0.1	0.01	0	0	1;
	234	0.0	0.0	1.00	33.4155	16.7078	12.0296	0.9	0.85	1000	-1000	1000	0.1	0.01	0	0	1;
	493	0.0	0.0	1.00	33.4155	16.7078	12.0296	0.9	0.85	1000	-1000	1000	0.1	0.01	0	0	1;
	494	0.0	0.0	1.00	33.4155	16.7078	12.0296	0.9	0.85	1000	-1000	1000	0.1	0.01	0	0	1;
	518	0.0	0.0	1.00	33.4155	16.7078	12.0296	0.9	0.85	1000	-1000	1000	0.1	0.01	0	0	1;
	216	0.0	0.0	1.00	33.4140	16.7070	12.0290	0.9	0.85	1000	-1000	1000	0.1	0.01	0	0	1;
	253	0.0	0.0	1.00	33.4140	16.7070	12.0290	0.9	0.85	1000	-1000	1000	0.1	0.01	0	0	1;
	504	0.0	0.0	1.00	33.4140	16.7070	12.0290	0.9	0.85	1000	-1000	1000	0.1	0.01	0	0	1;
	2212	0.0	0.0	1.00	33.4140	16.7070	12.0290	0.9	0.85	1000	-1000	1000	0.1	0.01	0	0	1;
	1373	0.0	0.0	1.00	33.3825	16.6913	12.0177	0.9	0.85	1000	-1000	1000	0.1	0.01	0	0	1;
	2705	0.0	0.0	1.00	33.1395	16.5697	11.9302	0.9	0.85	1000	-1000	1000	0.1	0.01	0	0	1;
	2392	0.0	0.0	1.00	33.0930	16.5465	11.9135	0.9	0.85	1000	-1000	1000	0.1	0.01	0	0	1;
	2520	0.0	0.0	1.00	32.9850	16.4925	11.8746	0.9	0.85	1000	-1000	1000	0.1	0.01	0	0	1;
	436	0.0	0.0	1.00	32.7585	16.3792	11.7931	0.9	0.85	1000	-1000	1000	0.1	0.01	0	0	1;
	2078	0.0	0.0	1.00	32.7585	16.3792	11.7931	0.9	0.85	1000	-1000	1000	0.1	0.01	0	0	1;
	290	0.0	0.0	1.00	32.6550	16.3275	11.7558	0.9	0.85	1000	-1000	1000	0.1	0.01	0	0	1;
...
];

%% branch data
%	fbus	tbus	r	x	b	rateA	rateB	rateC	ratio	angle	status	angmin	angmax
mpc.branch = [
	7	 8	 0.00064	 0.0305	 0.0	 400.0	 400.0	 400.0	 1.0435	 0.6	 1	 -30.0	 30.0;
	26	 28	 0.00036	 0.02519	 0.0	 500.0	 500.0	 500.0	 1.0565	 0.0	 1	 -30.0	 30.0;
	27	 29	 0.00036	 0.02519	 0.0	 500.0	 500.0	 500.0	 1.0566	 0.0	 1	 -30.0	 30.0;
	40	 42	 0.00034	 0.02097	 0.0	 500.0	 500.0	 500.0	 1.068	 0.0	 1	 -30.0	 30.0;
	43	 46	 0.00034	 0.02097	 0.0	 500.0	 500.0	 500.0	 1.0569	 0.0	 1	 -30.0	 30.0;
	55	 57	 0.00081	 0.03	 0.0	 400.0	 400.0	 400.0	 1.0765	 0.0	 1	 -30.0	 30.0;
	90	 92	 0.00075	 0.02444	 -0.00832	 330.0	 330.0	 330.0	 1.0631	 0.0	 1	 -30.0	 30.0;
	91	 93	 0.00075	 0.02469	 -0.008	 330.0	 330.0	 330.0	 1.0632	 0.0	 1	 -30.0	 30.0;
	125	 128	 0.0005	 0.02875	 -0.016	 400.0	 400.0	 400.0	 1.0639	 0.0	 1	 -30.0	 30.0;
	149	 150	 0.00064	 0.0305	 0.0	 400.0	 400.0	 400.0	 1.0826	 0.0	 1	 -30.0	 30.0;
	155	 158	 0.000232	 0.023	 0.0	 500.0	 500.0	 500.0	 1.089	 0.0	 1	 -30.0	 30.0;
	156	 159	 0.000232	 0.023	 0.0	 500.0	 500.0	 500.0	 1.0893	 0.0	 1	 -30.0	 30.0;
	170	 172	 0.00035	 0.02375	 0.0	 500.0	 500.0	 500.0	 1.1049	 0.0	 1	 -30.0	 30.0;
	183	 184	 0.00059	 0.03093	 0.0	 400.0	 400.0	 400.0	 1.091	 0.0	 1	 -30.0	 30.0;
	190	 192	 0.0004	 0.03	 0.0	 500.0	 500.0	 500.0	 1.1321	 0.0	 1	 -30.0	 30.0;
	2735	 158	 0.00031	 0.00338	 0.0992	 1386.0	 1386.0	 1386.0	 0.0	 0.0	 1	 -30.0	 30.0;
	2735	 159	 0.00031	 0.00338	 0.0992	 1386.0	 1386.0	 1386.0	 0.0	 0.0	 1	 -30.0	 30.0;
	2736	 68	 0.014341	 0.083531	 0.126034	 415.0	 415.0	 415.0	 0.0	 0.0	 1	 -30.0	 30.0;
	2734	 76	 0.01219	 0.070659	 0.117418	 412.0	 412.0	 412.0	 0.0	 0.0	 1	 -30.0	 30.0;
	2734	 105	 0.011781	 0.07087	 0.116838	 412.0	 412.0	 412.0	 0.0	 0.0	 1	 -30.0	 30.0;
	2739	 200	 9e-06	 9.4e-05	 0.0	 924.0	 924.0	 924.0	 0.0	 0.0	 1	 -30.0	 30.0;
	128	 2732	 0.0015	 0.01469	 0.40384	 1386.0	 1386.0	 1386.0	 0.0	 0.0	 0	 -30.0	 30.0;
	127	 2733	 0.001419	 0.014675	 0.4896	 1386.0	 1386.0	 1386.0	 0.0	 0.0	 1	 -30.0	 30.0;
	2737	 148	 0.001651	 0.015909	 0.046948	 373.0	 373.0	 373.0	 0.0	 0.0	 1	 -30.0	 30.0;
	2737	 149	 0.001651	 0.015909	 0.046948	 373.0	 373.0	 373.0	 0.0	 0.0	 1	 -30.0	 30.0;
	2738	 48	 0.00188	 0.02287	 0.6432	 831.0	 831.0	 831.0	 0.0	 0.0	 1	 -30.0	 30.0;
	2738	 49	 0.00188	 0.02287	 0.6432	 831.0	 831.0	 831.0	 0.0	 0.0	 1	 -30.0	 30.0;
	82	 2732	 0.003519	 0.039313	 1.0336	 1621.0	 1621.0	 1621.0	 0.0	 0.0	 1	 -30.0	 30.0;
	43	 23	 0.01345	 0.081141	 0.141134	 339.0	 339.0	 339.0	 0.0	 0.0	 1	 -30.0	 30.0;
	26	 90	 0.009091	 0.062401	 0.111417	 457.0	 457.0	 457.0	 0.0	 0.0	 1	 -30.0	 30.0;
...